Using: /usr/local/apps/synopsys/current_hspice/hspice/linux/hspice NMOS.sp
 ****** HSPICE -- F-2011.09-SP2 32-BIT (Feb 27 2012) linux ******               
  Copyright (C) 2011 Synopsys, Inc. All Rights Reserved.                        
  Unpublished-rights reserved under US copyright laws.
  This program is protected by law and is subject to the
  terms and conditions of the license agreement from Synopsys.
  Use of this program is your acceptance to be bound by the
  license agreement. HSPICE is the trademark of Synopsys, Inc.
  Input File: NMOS.sp                                                           
  Command line options: NMOS.sp
 lic:  
 lic: FLEXlm: v10.8 
 lic: USER:   goynese              HOSTNAME: kec1130-15.engr.oregonstate.edu 
 lic: HOSTID: 24be050e57ef         PID:      5518 
 lic: Using FLEXlm license file: 
 lic: 7188@license.eecs.oregonstate.edu 
 lic: Checkout 1 hspice 
 lic: License/Maintenance for hspice will expire on 11-aug-2014/2013.03 
 lic: 1(in_use)/50(total) FLOATING license(s) on SERVER license.eecs.oregonstate
 lic:   
 Init: read install configuration file: /usr/local/apps/synopsys/current_hspice/hspice/meta.cfg
  **warning** (NMOS.sp:11) No independent source value specified. Reset to zero.
1****** HSPICE -- F-2011.09-SP2 32-BIT (Feb 27 2012) linux ******               
 ******  
 .title nmos

  ******  mos   model parameters tnom=  25.000 temp=  25.000 *****
 ***************************************************************************
 ***        model parameters  model name:   0:n_18     model type:nmos   ***
 ***************************************************************************

   *** general parameters ***
    deriv=   0.           

   ***  level 49  model parameters  ***

      hspver=    2006.03               level=         49         
     version=        3.1            paramchk=          0         
      apwarn=          1                lite=          0         
      vgslim=          0             binUnit=          1         
      capMod=          2               xpart=        0.5         
      mobMod=          1              nqsMod=          0         
      stiMod=          0                 elm=          5         
    sfvtflag=          0                 tox=    4.1e-09 meter   
          xj=      1e-07 meter       binflag=          0         
        lmin=          0 meter          lmax=          0 meter   
        wmin=          0 meter          wmax=          0 meter   
        lref=          0 meter          wref=          0 meter   
        lint=7.65986e-09 meter          wint=          0 meter   
       lmult=          1               wmult=          1         
          ll=          0                 lln=          1         
          lw=          0                 lwn=          1         
         lwl=          0                  wl=          0         
         wln=          1                  ww=          0         
         wwn=          1                 wwl=          0         
         dwg=-1.17694e-08 m/V             dwb=1.96583e-08 m/V^1/2 
          xl=          0                  xw=     -1e-08         
          a0=          2                 ags=   0.428182 V^-1    
          b0=-4.43566e-09 meter            b1=     -1e-07 meter   
        keta=-0.00873409 V^-1           voff= -0.0909514 V       
       ngate=          0 cm^-3           vbx=          0 V       
         vbm=         -3 V                xt=   1.55e-07 meter   
        vth0=   0.376033 V               nch= 2.3549e+17 cm^-3   
        nsub=      6e+16 cm^-3           nlx=1.83658e-07 meter   
      gamma1=          0 V^-1/2       gamma2=          0 V^-1/2  
          k1=   0.598252 V^1/2            k2= 0.00204285         
          k3=      0.001                 k3b=    5.47338 V^-1    
          w0=      1e-07 meter          dvt0=    1.38283         
        dvt1=   0.374633                dvt2=  0.0524724 V^-1    
       dvt0w=          0 meter^-1      dvt1w=          0 meter^-1
       dvt2w=          0 V^-1           dsub= 0.00880778         
        eta0=  0.0029649                etab=9.02839e-05 V^-1    
          u0=    265.099 cm^2/V/sec         ua=-1.34288e-09 m/V     
          ub=2.21876e-18 (m/V)^2          uc=5.30227e-11 V^-1    
        vsat=      99674 m/sec            a1=0.000117788 v^-1    
          a2=          1               delta=       0.01 V       
        rdsw=        150 ohm-um         prwg=        0.5 V^-1    
        prwb=       -0.2 V^-1/2           wr=          1         
        pclm=   0.739383             pdiblc1=   0.240506         
     pdiblc2= 0.00238467             pdiblcb=       -0.1 V^-1    
      pscbe1=2.25061e+09 V/m          pscbe2=5.50405e-09 V/m     
       drout=   0.810147                pvag= 0.00820885         
     nfactor=    2.47421                cdsc=    0.00024 f/m^2   
       cdscb=          0 f/V/m^2       cdscd=          0 f/V/m^2 
         cit=          0 f/m^2        alpha0=          0 m/V     
       beta0=         30 V               dlc=7.65986e-09 meter   
         dwc=          0 meter           clc=      1e-07 meter   
         cle=        0.6                cgso=   7.68e-10 f/m     
        cgdo=   7.68e-10 f/m            cgbo=      1e-12 f/m     
        cgsl=          0 f/m            cgdl=          0 f/m     
      ckappa=        0.6                  cf=          0 f/m     
        tnom=     300.15 K               kt1=      -0.11 V       
        kt1l=          0                 kt2=      0.022         
         ute=       -1.5                 ua1=   4.31e-09 m/V     
         ub1=  -7.61e-18 (m/V)^2         uc1=   -5.6e-11 m/V^2   
          at=      33000 m/s             prt=          0         
         using Berkeley noise model       noiMod=          1         
        noia=      1e+20                noib=      50000         
        noic=   -1.4e-12                  em=    4.1e+07         
          ef=          1                  af=          1         
          kf=          0              gdsnoi=-1.23457e-29         
         using Hspice diodes            using ACM 
         acm=         0                 hdif=         0 meter    
        ldif=         0 meter             js=         0 amp/m^2  
         jsw=         0 amp/m            xti=         0          
           n=         1                   cj=0.00096236 f/m^2    
          mj=  0.380501                   pb=       0.8 V        
        cjsw=2.37186e-10 f/m             mjsw=  0.107791          
         php=       0.8 V               pbsw (not used)           
      cjgate=2.37186e-10 f/m            cjswg (not used)           
       mjswg (not used)                 pbswg (not used)           
       lketa=-0.00944713               wketa= 0.00500085         
       pketa=-0.00308008               pvth0=-0.000919017         
         pk2=0.000320258               peta0=9.33065e-05         
         pu0=    32.7094                 pua=1.35883e-10         
       pvsat=    2004.06               prdsw=         -5         
 

 Warning: Pd = 0 is less than W.
 Model:    0:n_18
 W = 2.99e-06, L = 1e-06

  
      
 *****************************************************************
 ******  option summary
 ******
 runlvl  = 3         bypass  = 2         
 ******  
 .title nmos

  ******  dc transfer curves tnom=  25.000 temp=  25.000 *****

   *** source        0:vgs =  600.0000m       ***

x

        volt    current    
                    m1     
    0.            0.       
   10.00000m      2.5044u  
   20.00000m      4.8069u  
   30.00000m      6.9096u  
   40.00000m      8.8146u  
   50.00000m     10.5248u  
   60.00000m     12.0436u  
   70.00000m     13.3758u  
   80.00000m     14.5275u  
   90.00000m     15.5069u  
  100.00000m     16.3246u  
  110.00000m     16.9945u  
  120.00000m     17.5330u  
  130.00000m     17.9590u  
  140.00000m     18.2921u  
  150.00000m     18.5515u  
  160.00000m     18.7541u  
  170.00000m     18.9139u  
  180.00000m     19.0419u  
  190.00000m     19.1464u  
  200.00000m     19.2334u  
  210.00000m     19.3074u  
  220.00000m     19.3715u  
  230.00000m     19.4280u  
  240.00000m     19.4787u  
  250.00000m     19.5248u  
  260.00000m     19.5672u  
  270.00000m     19.6067u  
  280.00000m     19.6437u  
  290.00000m     19.6788u  
  300.00000m     19.7122u  
  310.00000m     19.7442u  
  320.00000m     19.7750u  
  330.00000m     19.8048u  
  340.00000m     19.8337u  
  350.00000m     19.8619u  
  360.00000m     19.8894u  
  370.00000m     19.9163u  
  380.00000m     19.9427u  
  390.00000m     19.9687u  
  400.00000m     19.9942u  
  410.00000m     20.0194u  
  420.00000m     20.0443u  
  430.00000m     20.0688u  
  440.00000m     20.0931u  
  450.00000m     20.1172u  
  460.00000m     20.1411u  
  470.00000m     20.1647u  
  480.00000m     20.1882u  
  490.00000m     20.2115u  
  500.00000m     20.2346u  
  510.00000m     20.2576u  
  520.00000m     20.2805u  
  530.00000m     20.3033u  
  540.00000m     20.3259u  
  550.00000m     20.3485u  
  560.00000m     20.3709u  
  570.00000m     20.3933u  
  580.00000m     20.4156u  
  590.00000m     20.4378u  
  600.00000m     20.4600u  
  610.00000m     20.4820u  
  620.00000m     20.5040u  
  630.00000m     20.5260u  
  640.00000m     20.5479u  
  650.00000m     20.5698u  
  660.00000m     20.5916u  
  670.00000m     20.6134u  
  680.00000m     20.6351u  
  690.00000m     20.6568u  
  700.00000m     20.6784u  
  710.00000m     20.7001u  
  720.00000m     20.7216u  
  730.00000m     20.7432u  
  740.00000m     20.7647u  
  750.00000m     20.7863u  
  760.00000m     20.8077u  
  770.00000m     20.8292u  
  780.00000m     20.8506u  
  790.00000m     20.8721u  
  800.00000m     20.8935u  
  810.00000m     20.9149u  
  820.00000m     20.9362u  
  830.00000m     20.9576u  
  840.00000m     20.9789u  
  850.00000m     21.0003u  
  860.00000m     21.0216u  
  870.00000m     21.0429u  
  880.00000m     21.0642u  
  890.00000m     21.0855u  
  900.00000m     21.1068u  
  910.00000m     21.1281u  
  920.00000m     21.1493u  
  930.00000m     21.1706u  
  940.00000m     21.1918u  
  950.00000m     21.2131u  
  960.00000m     21.2343u  
  970.00000m     21.2556u  
  980.00000m     21.2768u  
  990.00000m     21.2980u  
    1.00000      21.3193u  
    1.01000      21.3405u  
    1.02000      21.3617u  
    1.03000      21.3830u  
    1.04000      21.4042u  
    1.05000      21.4254u  
    1.06000      21.4466u  
    1.07000      21.4679u  
    1.08000      21.4891u  
    1.09000      21.5103u  
    1.10000      21.5315u  
    1.11000      21.5528u  
    1.12000      21.5740u  
    1.13000      21.5952u  
    1.14000      21.6164u  
    1.15000      21.6377u  
    1.16000      21.6589u  
    1.17000      21.6802u  
    1.18000      21.7014u  
    1.19000      21.7226u  
    1.20000      21.7439u  
    1.21000      21.7651u  
    1.22000      21.7864u  
    1.23000      21.8077u  
    1.24000      21.8289u  
    1.25000      21.8502u  
    1.26000      21.8715u  
    1.27000      21.8927u  
    1.28000      21.9140u  
    1.29000      21.9353u  
    1.30000      21.9566u  
    1.31000      21.9779u  
    1.32000      21.9992u  
    1.33000      22.0205u  
    1.34000      22.0418u  
    1.35000      22.0631u  
    1.36000      22.0845u  
    1.37000      22.1058u  
    1.38000      22.1271u  
    1.39000      22.1485u  
    1.40000      22.1698u  
    1.41000      22.1912u  
    1.42000      22.2125u  
    1.43000      22.2339u  
    1.44000      22.2553u  
    1.45000      22.2766u  
    1.46000      22.2980u  
    1.47000      22.3194u  
    1.48000      22.3408u  
    1.49000      22.3622u  
    1.50000      22.3837u  
    1.51000      22.4051u  
    1.52000      22.4265u  
    1.53000      22.4479u  
    1.54000      22.4694u  
    1.55000      22.4908u  
    1.56000      22.5123u  
    1.57000      22.5338u  
    1.58000      22.5552u  
    1.59000      22.5767u  
    1.60000      22.5982u  
    1.61000      22.6197u  
    1.62000      22.6412u  
    1.63000      22.6627u  
    1.64000      22.6843u  
    1.65000      22.7058u  
    1.66000      22.7273u  
    1.67000      22.7489u  
    1.68000      22.7704u  
    1.69000      22.7920u  
    1.70000      22.8136u  
    1.71000      22.8351u  
    1.72000      22.8567u  
    1.73000      22.8783u  
    1.74000      22.8999u  
    1.75000      22.9215u  
    1.76000      22.9432u  
    1.77000      22.9648u  
    1.78000      22.9864u  
    1.79000      23.0081u  
    1.80000      23.0297u  
y
 ******  
 .title nmos

  ******  dc transfer curves tnom=  25.000 temp=  25.000 *****

   *** source        0:vgs =  800.0000m       ***

x

        volt    current    
                    m1     
    0.            0.       
   10.00000m      6.1181u  
   20.00000m     11.9966u  
   30.00000m     17.6368u  
   40.00000m     23.0396u  
   50.00000m     28.2064u  
   60.00000m     33.1382u  
   70.00000m     37.8363u  
   80.00000m     42.3020u  
   90.00000m     46.5366u  
  100.00000m     50.5416u  
  110.00000m     54.3185u  
  120.00000m     57.8689u  
  130.00000m     61.1949u  
  140.00000m     64.2983u  
  150.00000m     67.1818u  
  160.00000m     69.8480u  
  170.00000m     72.3002u  
  180.00000m     74.5424u  
  190.00000m     76.5794u  
  200.00000m     78.4168u  
  210.00000m     80.0616u  
  220.00000m     81.5221u  
  230.00000m     82.8083u  
  240.00000m     83.9316u  
  250.00000m     84.9052u  
  260.00000m     85.7434u  
  270.00000m     86.4613u  
  280.00000m     87.0742u  
  290.00000m     87.5971u  
  300.00000m     88.0438u  
  310.00000m     88.4269u  
  320.00000m     88.7573u  
  330.00000m     89.0443u  
  340.00000m     89.2956u  
  350.00000m     89.5175u  
  360.00000m     89.7152u  
  370.00000m     89.8929u  
  380.00000m     90.0539u  
  390.00000m     90.2011u  
  400.00000m     90.3365u  
  410.00000m     90.4619u  
  420.00000m     90.5790u  
  430.00000m     90.6887u  
  440.00000m     90.7922u  
  450.00000m     90.8903u  
  460.00000m     90.9837u  
  470.00000m     91.0728u  
  480.00000m     91.1584u  
  490.00000m     91.2406u  
  500.00000m     91.3200u  
  510.00000m     91.3968u  
  520.00000m     91.4713u  
  530.00000m     91.5437u  
  540.00000m     91.6142u  
  550.00000m     91.6830u  
  560.00000m     91.7503u  
  570.00000m     91.8161u  
  580.00000m     91.8806u  
  590.00000m     91.9440u  
  600.00000m     92.0063u  
  610.00000m     92.0675u  
  620.00000m     92.1279u  
  630.00000m     92.1874u  
  640.00000m     92.2461u  
  650.00000m     92.3040u  
  660.00000m     92.3613u  
  670.00000m     92.4179u  
  680.00000m     92.4739u  
  690.00000m     92.5294u  
  700.00000m     92.5844u  
  710.00000m     92.6388u  
  720.00000m     92.6928u  
  730.00000m     92.7464u  
  740.00000m     92.7996u  
  750.00000m     92.8524u  
  760.00000m     92.9048u  
  770.00000m     92.9569u  
  780.00000m     93.0086u  
  790.00000m     93.0601u  
  800.00000m     93.1113u  
  810.00000m     93.1622u  
  820.00000m     93.2128u  
  830.00000m     93.2632u  
  840.00000m     93.3134u  
  850.00000m     93.3634u  
  860.00000m     93.4131u  
  870.00000m     93.4626u  
  880.00000m     93.5120u  
  890.00000m     93.5611u  
  900.00000m     93.6101u  
  910.00000m     93.6589u  
  920.00000m     93.7076u  
  930.00000m     93.7561u  
  940.00000m     93.8045u  
  950.00000m     93.8527u  
  960.00000m     93.9008u  
  970.00000m     93.9488u  
  980.00000m     93.9967u  
  990.00000m     94.0444u  
    1.00000      94.0920u  
    1.01000      94.1395u  
    1.02000      94.1869u  
    1.03000      94.2343u  
    1.04000      94.2815u  
    1.05000      94.3286u  
    1.06000      94.3757u  
    1.07000      94.4226u  
    1.08000      94.4695u  
    1.09000      94.5163u  
    1.10000      94.5630u  
    1.11000      94.6097u  
    1.12000      94.6563u  
    1.13000      94.7028u  
    1.14000      94.7492u  
    1.15000      94.7956u  
    1.16000      94.8420u  
    1.17000      94.8882u  
    1.18000      94.9345u  
    1.19000      94.9806u  
    1.20000      95.0267u  
    1.21000      95.0728u  
    1.22000      95.1188u  
    1.23000      95.1648u  
    1.24000      95.2107u  
    1.25000      95.2566u  
    1.26000      95.3024u  
    1.27000      95.3482u  
    1.28000      95.3940u  
    1.29000      95.4397u  
    1.30000      95.4854u  
    1.31000      95.5311u  
    1.32000      95.5767u  
    1.33000      95.6223u  
    1.34000      95.6678u  
    1.35000      95.7133u  
    1.36000      95.7588u  
    1.37000      95.8043u  
    1.38000      95.8497u  
    1.39000      95.8951u  
    1.40000      95.9405u  
    1.41000      95.9859u  
    1.42000      96.0312u  
    1.43000      96.0765u  
    1.44000      96.1218u  
    1.45000      96.1671u  
    1.46000      96.2123u  
    1.47000      96.2576u  
    1.48000      96.3028u  
    1.49000      96.3480u  
    1.50000      96.3931u  
    1.51000      96.4383u  
    1.52000      96.4834u  
    1.53000      96.5286u  
    1.54000      96.5737u  
    1.55000      96.6187u  
    1.56000      96.6638u  
    1.57000      96.7089u  
    1.58000      96.7539u  
    1.59000      96.7990u  
    1.60000      96.8440u  
    1.61000      96.8890u  
    1.62000      96.9340u  
    1.63000      96.9790u  
    1.64000      97.0239u  
    1.65000      97.0689u  
    1.66000      97.1139u  
    1.67000      97.1588u  
    1.68000      97.2037u  
    1.69000      97.2487u  
    1.70000      97.2936u  
    1.71000      97.3385u  
    1.72000      97.3834u  
    1.73000      97.4283u  
    1.74000      97.4731u  
    1.75000      97.5180u  
    1.76000      97.5629u  
    1.77000      97.6078u  
    1.78000      97.6526u  
    1.79000      97.6975u  
    1.80000      97.7423u  
y
 ******  
 .title nmos

  ******  dc transfer curves tnom=  25.000 temp=  25.000 *****

   *** source        0:vgs =    1.0000        ***

x

        volt    current    
                    m1     
    0.            0.       
   10.00000m      9.4375u  
   20.00000m     18.6268u  
   30.00000m     27.5690u  
   40.00000m     36.2652u  
   50.00000m     44.7162u  
   60.00000m     52.9231u  
   70.00000m     60.8869u  
   80.00000m     68.6087u  
   90.00000m     76.0894u  
  100.00000m     83.3302u  
  110.00000m     90.3319u  
  120.00000m     97.0956u  
  130.00000m    103.6225u  
  140.00000m    109.9135u  
  150.00000m    115.9698u  
  160.00000m    121.7925u  
  170.00000m    127.3828u  
  180.00000m    132.7417u  
  190.00000m    137.8707u  
  200.00000m    142.7708u  
  210.00000m    147.4436u  
  220.00000m    151.8905u  
  230.00000m    156.1130u  
  240.00000m    160.1129u  
  250.00000m    163.8920u  
  260.00000m    167.4525u  
  270.00000m    170.7967u  
  280.00000m    173.9273u  
  290.00000m    176.8473u  
  300.00000m    179.5604u  
  310.00000m    182.0707u  
  320.00000m    184.3830u  
  330.00000m    186.5030u  
  340.00000m    188.4372u  
  350.00000m    190.1933u  
  360.00000m    191.7798u  
  370.00000m    193.2063u  
  380.00000m    194.4836u  
  390.00000m    195.6231u  
  400.00000m    196.6367u  
  410.00000m    197.5366u  
  420.00000m    198.3351u  
  430.00000m    199.0438u  
  440.00000m    199.6737u  
  450.00000m    200.2350u  
  460.00000m    200.7370u  
  470.00000m    201.1876u  
  480.00000m    201.5939u  
  490.00000m    201.9622u  
  500.00000m    202.2976u  
  510.00000m    202.6047u  
  520.00000m    202.8872u  
  530.00000m    203.1485u  
  540.00000m    203.3912u  
  550.00000m    203.6177u  
  560.00000m    203.8300u  
  570.00000m    204.0299u  
  580.00000m    204.2187u  
  590.00000m    204.3976u  
  600.00000m    204.5679u  
  610.00000m    204.7304u  
  620.00000m    204.8859u  
  630.00000m    205.0351u  
  640.00000m    205.1786u  
  650.00000m    205.3170u  
  660.00000m    205.4508u  
  670.00000m    205.5803u  
  680.00000m    205.7059u  
  690.00000m    205.8280u  
  700.00000m    205.9469u  
  710.00000m    206.0627u  
  720.00000m    206.1759u  
  730.00000m    206.2864u  
  740.00000m    206.3947u  
  750.00000m    206.5007u  
  760.00000m    206.6048u  
  770.00000m    206.7070u  
  780.00000m    206.8074u  
  790.00000m    206.9062u  
  800.00000m    207.0034u  
  810.00000m    207.0993u  
  820.00000m    207.1937u  
  830.00000m    207.2870u  
  840.00000m    207.3790u  
  850.00000m    207.4700u  
  860.00000m    207.5599u  
  870.00000m    207.6488u  
  880.00000m    207.7368u  
  890.00000m    207.8239u  
  900.00000m    207.9102u  
  910.00000m    207.9957u  
  920.00000m    208.0804u  
  930.00000m    208.1645u  
  940.00000m    208.2478u  
  950.00000m    208.3306u  
  960.00000m    208.4127u  
  970.00000m    208.4942u  
  980.00000m    208.5752u  
  990.00000m    208.6557u  
    1.00000     208.7357u  
    1.01000     208.8152u  
    1.02000     208.8942u  
    1.03000     208.9728u  
    1.04000     209.0510u  
    1.05000     209.1287u  
    1.06000     209.2061u  
    1.07000     209.2832u  
    1.08000     209.3599u  
    1.09000     209.4362u  
    1.10000     209.5122u  
    1.11000     209.5880u  
    1.12000     209.6634u  
    1.13000     209.7385u  
    1.14000     209.8134u  
    1.15000     209.8880u  
    1.16000     209.9623u  
    1.17000     210.0364u  
    1.18000     210.1102u  
    1.19000     210.1839u  
    1.20000     210.2573u  
    1.21000     210.3305u  
    1.22000     210.4035u  
    1.23000     210.4763u  
    1.24000     210.5489u  
    1.25000     210.6213u  
    1.26000     210.6936u  
    1.27000     210.7657u  
    1.28000     210.8376u  
    1.29000     210.9093u  
    1.30000     210.9809u  
    1.31000     211.0524u  
    1.32000     211.1237u  
    1.33000     211.1949u  
    1.34000     211.2659u  
    1.35000     211.3368u  
    1.36000     211.4076u  
    1.37000     211.4782u  
    1.38000     211.5487u  
    1.39000     211.6192u  
    1.40000     211.6895u  
    1.41000     211.7596u  
    1.42000     211.8297u  
    1.43000     211.8997u  
    1.44000     211.9696u  
    1.45000     212.0394u  
    1.46000     212.1091u  
    1.47000     212.1787u  
    1.48000     212.2482u  
    1.49000     212.3176u  
    1.50000     212.3870u  
    1.51000     212.4563u  
    1.52000     212.5255u  
    1.53000     212.5946u  
    1.54000     212.6636u  
    1.55000     212.7326u  
    1.56000     212.8015u  
    1.57000     212.8703u  
    1.58000     212.9391u  
    1.59000     213.0077u  
    1.60000     213.0764u  
    1.61000     213.1450u  
    1.62000     213.2135u  
    1.63000     213.2819u  
    1.64000     213.3503u  
    1.65000     213.4187u  
    1.66000     213.4869u  
    1.67000     213.5552u  
    1.68000     213.6234u  
    1.69000     213.6915u  
    1.70000     213.7596u  
    1.71000     213.8276u  
    1.72000     213.8956u  
    1.73000     213.9636u  
    1.74000     214.0315u  
    1.75000     214.0994u  
    1.76000     214.1672u  
    1.77000     214.2350u  
    1.78000     214.3027u  
    1.79000     214.3704u  
    1.80000     214.4381u  
y
 ******  
 .title nmos

  ******  dc transfer curves tnom=  25.000 temp=  25.000 *****

   *** source        0:vgs =    1.2000        ***

x

        volt    current    
                    m1     
    0.            0.       
   10.00000m     12.4274u  
   20.00000m     24.6083u  
   30.00000m     36.5437u  
   40.00000m     48.2345u  
   50.00000m     59.6817u  
   60.00000m     70.8861u  
   70.00000m     81.8487u  
   80.00000m     92.5703u  
   90.00000m    103.0520u  
  100.00000m    113.2945u  
  110.00000m    123.2988u  
  120.00000m    133.0658u  
  130.00000m    142.5964u  
  140.00000m    151.8916u  
  150.00000m    160.9521u  
  160.00000m    169.7790u  
  170.00000m    178.3730u  
  180.00000m    186.7352u  
  190.00000m    194.8664u  
  200.00000m    202.7676u  
  210.00000m    210.4396u  
  220.00000m    217.8834u  
  230.00000m    225.0999u  
  240.00000m    232.0901u  
  250.00000m    238.8549u  
  260.00000m    245.3954u  
  270.00000m    251.7124u  
  280.00000m    257.8071u  
  290.00000m    263.6804u  
  300.00000m    269.3335u  
  310.00000m    274.7675u  
  320.00000m    279.9836u  
  330.00000m    284.9830u  
  340.00000m    289.7671u  
  350.00000m    294.3373u  
  360.00000m    298.6951u  
  370.00000m    302.8421u  
  380.00000m    306.7804u  
  390.00000m    310.5118u  
  400.00000m    314.0388u  
  410.00000m    317.3638u  
  420.00000m    320.4898u  
  430.00000m    323.4202u  
  440.00000m    326.1588u  
  450.00000m    328.7100u  
  460.00000m    331.0788u  
  470.00000m    333.2707u  
  480.00000m    335.2924u  
  490.00000m    337.1509u  
  500.00000m    338.8541u  
  510.00000m    340.4106u  
  520.00000m    341.8297u  
  530.00000m    343.1209u  
  540.00000m    344.2942u  
  550.00000m    345.3594u  
  560.00000m    346.3266u  
  570.00000m    347.2052u  
  580.00000m    348.0042u  
  590.00000m    348.7321u  
  600.00000m    349.3967u  
  610.00000m    350.0051u  
  620.00000m    350.5637u  
  630.00000m    351.0782u  
  640.00000m    351.5536u  
  650.00000m    351.9944u  
  660.00000m    352.4044u  
  670.00000m    352.7872u  
  680.00000m    353.1456u  
  690.00000m    353.4824u  
  700.00000m    353.7998u  
  710.00000m    354.0998u  
  720.00000m    354.3843u  
  730.00000m    354.6546u  
  740.00000m    354.9123u  
  750.00000m    355.1585u  
  760.00000m    355.3943u  
  770.00000m    355.6206u  
  780.00000m    355.8382u  
  790.00000m    356.0480u  
  800.00000m    356.2505u  
  810.00000m    356.4464u  
  820.00000m    356.6361u  
  830.00000m    356.8203u  
  840.00000m    356.9992u  
  850.00000m    357.1734u  
  860.00000m    357.3430u  
  870.00000m    357.5086u  
  880.00000m    357.6703u  
  890.00000m    357.8284u  
  900.00000m    357.9832u  
  910.00000m    358.1348u  
  920.00000m    358.2835u  
  930.00000m    358.4295u  
  940.00000m    358.5730u  
  950.00000m    358.7140u  
  960.00000m    358.8527u  
  970.00000m    358.9894u  
  980.00000m    359.1240u  
  990.00000m    359.2567u  
    1.00000     359.3876u  
    1.01000     359.5169u  
    1.02000     359.6445u  
    1.03000     359.7706u  
    1.04000     359.8953u  
    1.05000     360.0186u  
    1.06000     360.1406u  
    1.07000     360.2614u  
    1.08000     360.3810u  
    1.09000     360.4995u  
    1.10000     360.6169u  
    1.11000     360.7333u  
    1.12000     360.8487u  
    1.13000     360.9632u  
    1.14000     361.0769u  
    1.15000     361.1897u  
    1.16000     361.3016u  
    1.17000     361.4128u  
    1.18000     361.5233u  
    1.19000     361.6331u  
    1.20000     361.7421u  
    1.21000     361.8505u  
    1.22000     361.9583u  
    1.23000     362.0655u  
    1.24000     362.1721u  
    1.25000     362.2782u  
    1.26000     362.3837u  
    1.27000     362.4887u  
    1.28000     362.5932u  
    1.29000     362.6973u  
    1.30000     362.8008u  
    1.31000     362.9040u  
    1.32000     363.0067u  
    1.33000     363.1090u  
    1.34000     363.2109u  
    1.35000     363.3124u  
    1.36000     363.4135u  
    1.37000     363.5143u  
    1.38000     363.6147u  
    1.39000     363.7148u  
    1.40000     363.8146u  
    1.41000     363.9140u  
    1.42000     364.0132u  
    1.43000     364.1120u  
    1.44000     364.2106u  
    1.45000     364.3089u  
    1.46000     364.4069u  
    1.47000     364.5047u  
    1.48000     364.6022u  
    1.49000     364.6995u  
    1.50000     364.7965u  
    1.51000     364.8934u  
    1.52000     364.9899u  
    1.53000     365.0863u  
    1.54000     365.1825u  
    1.55000     365.2784u  
    1.56000     365.3742u  
    1.57000     365.4698u  
    1.58000     365.5652u  
    1.59000     365.6604u  
    1.60000     365.7554u  
    1.61000     365.8503u  
    1.62000     365.9449u  
    1.63000     366.0395u  
    1.64000     366.1338u  
    1.65000     366.2280u  
    1.66000     366.3221u  
    1.67000     366.4160u  
    1.68000     366.5098u  
    1.69000     366.6034u  
    1.70000     366.6969u  
    1.71000     366.7903u  
    1.72000     366.8836u  
    1.73000     366.9767u  
    1.74000     367.0697u  
    1.75000     367.1626u  
    1.76000     367.2553u  
    1.77000     367.3480u  
    1.78000     367.4405u  
    1.79000     367.5330u  
    1.80000     367.6253u  
y
 ******  
 .title nmos

  ******  dc transfer curves tnom=  25.000 temp=  25.000 *****

   *** source        0:vgs =    1.4000        ***

x

        volt    current    
                    m1     
    0.            0.       
   10.00000m     15.0255u  
   20.00000m     29.8126u  
   30.00000m     44.3621u  
   40.00000m     58.6748u  
   50.00000m     72.7515u  
   60.00000m     86.5931u  
   70.00000m    100.2004u  
   80.00000m    113.5741u  
   90.00000m    126.7152u  
  100.00000m    139.6244u  
  110.00000m    152.3025u  
  120.00000m    164.7503u  
  130.00000m    176.9686u  
  140.00000m    188.9583u  
  150.00000m    200.7200u  
  160.00000m    212.2547u  
  170.00000m    223.5631u  
  180.00000m    234.6459u  
  190.00000m    245.5040u  
  200.00000m    256.1382u  
  210.00000m    266.5492u  
  220.00000m    276.7379u  
  230.00000m    286.7049u  
  240.00000m    296.4511u  
  250.00000m    305.9772u  
  260.00000m    315.2841u  
  270.00000m    324.3725u  
  280.00000m    333.2432u  
  290.00000m    341.8969u  
  300.00000m    350.3345u  
  310.00000m    358.5568u  
  320.00000m    366.5644u  
  330.00000m    374.3583u  
  340.00000m    381.9392u  
  350.00000m    389.3079u  
  360.00000m    396.4653u  
  370.00000m    403.4122u  
  380.00000m    410.1493u  
  390.00000m    416.6777u  
  400.00000m    422.9981u  
  410.00000m    429.1114u  
  420.00000m    435.0186u  
  430.00000m    440.7207u  
  440.00000m    446.2186u  
  450.00000m    451.5134u  
  460.00000m    456.6062u  
  470.00000m    461.4982u  
  480.00000m    466.1906u  
  490.00000m    470.6848u  
  500.00000m    474.9823u  
  510.00000m    479.0848u  
  520.00000m    482.9939u  
  530.00000m    486.7118u  
  540.00000m    490.2405u  
  550.00000m    493.5827u  
  560.00000m    496.7411u  
  570.00000m    499.7189u  
  580.00000m    502.5199u  
  590.00000m    505.1479u  
  600.00000m    507.6076u  
  610.00000m    509.9042u  
  620.00000m    512.0433u  
  630.00000m    514.0312u  
  640.00000m    515.8747u  
  650.00000m    517.5811u  
  660.00000m    519.1581u  
  670.00000m    520.6137u  
  680.00000m    521.9561u  
  690.00000m    523.1935u  
  700.00000m    524.3343u  
  710.00000m    525.3862u  
  720.00000m    526.3571u  
  730.00000m    527.2541u  
  740.00000m    528.0842u  
  750.00000m    528.8537u  
  760.00000m    529.5684u  
  770.00000m    530.2337u  
  780.00000m    530.8544u  
  790.00000m    531.4348u  
  800.00000m    531.9790u  
  810.00000m    532.4903u  
  820.00000m    532.9720u  
  830.00000m    533.4268u  
  840.00000m    533.8574u  
  850.00000m    534.2659u  
  860.00000m    534.6543u  
  870.00000m    535.0244u  
  880.00000m    535.3779u  
  890.00000m    535.7161u  
  900.00000m    536.0404u  
  910.00000m    536.3518u  
  920.00000m    536.6515u  
  930.00000m    536.9404u  
  940.00000m    537.2193u  
  950.00000m    537.4890u  
  960.00000m    537.7501u  
  970.00000m    538.0033u  
  980.00000m    538.2491u  
  990.00000m    538.4882u  
    1.00000     538.7208u  
    1.01000     538.9476u  
    1.02000     539.1688u  
    1.03000     539.3848u  
    1.04000     539.5960u  
    1.05000     539.8027u  
    1.06000     540.0051u  
    1.07000     540.2034u  
    1.08000     540.3980u  
    1.09000     540.5891u  
    1.10000     540.7768u  
    1.11000     540.9614u  
    1.12000     541.1429u  
    1.13000     541.3217u  
    1.14000     541.4977u  
    1.15000     541.6713u  
    1.16000     541.8424u  
    1.17000     542.0113u  
    1.18000     542.1780u  
    1.19000     542.3426u  
    1.20000     542.5053u  
    1.21000     542.6661u  
    1.22000     542.8252u  
    1.23000     542.9825u  
    1.24000     543.1383u  
    1.25000     543.2925u  
    1.26000     543.4452u  
    1.27000     543.5965u  
    1.28000     543.7464u  
    1.29000     543.8951u  
    1.30000     544.0425u  
    1.31000     544.1888u  
    1.32000     544.3339u  
    1.33000     544.4779u  
    1.34000     544.6208u  
    1.35000     544.7628u  
    1.36000     544.9038u  
    1.37000     545.0439u  
    1.38000     545.1830u  
    1.39000     545.3213u  
    1.40000     545.4588u  
    1.41000     545.5955u  
    1.42000     545.7314u  
    1.43000     545.8666u  
    1.44000     546.0010u  
    1.45000     546.1348u  
    1.46000     546.2679u  
    1.47000     546.4003u  
    1.48000     546.5322u  
    1.49000     546.6634u  
    1.50000     546.7941u  
    1.51000     546.9242u  
    1.52000     547.0537u  
    1.53000     547.1827u  
    1.54000     547.3113u  
    1.55000     547.4393u  
    1.56000     547.5668u  
    1.57000     547.6939u  
    1.58000     547.8206u  
    1.59000     547.9468u  
    1.60000     548.0726u  
    1.61000     548.1979u  
    1.62000     548.3229u  
    1.63000     548.4475u  
    1.64000     548.5717u  
    1.65000     548.6956u  
    1.66000     548.8191u  
    1.67000     548.9423u  
    1.68000     549.0651u  
    1.69000     549.1876u  
    1.70000     549.3098u  
    1.71000     549.4317u  
    1.72000     549.5533u  
    1.73000     549.6746u  
    1.74000     549.7956u  
    1.75000     549.9164u  
    1.76000     550.0369u  
    1.77000     550.1571u  
    1.78000     550.2771u  
    1.79000     550.3968u  
    1.80000     550.5163u  
y
 ******  
 .title nmos

  ******  dc transfer curves tnom=  25.000 temp=  25.000 *****

   *** source        0:vgs =    1.6000        ***

x

        volt    current    
                    m1     
    0.            0.       
   10.00000m     17.1858u  
   20.00000m     34.1454u  
   30.00000m     50.8796u  
   40.00000m     67.3891u  
   50.00000m     83.6745u  
   60.00000m     99.7367u  
   70.00000m    115.5764u  
   80.00000m    131.1941u  
   90.00000m    146.5908u  
  100.00000m    161.7670u  
  110.00000m    176.7235u  
  120.00000m    191.4610u  
  130.00000m    205.9802u  
  140.00000m    220.2817u  
  150.00000m    234.3664u  
  160.00000m    248.2348u  
  170.00000m    261.8876u  
  180.00000m    275.3256u  
  190.00000m    288.5494u  
  200.00000m    301.5597u  
  210.00000m    314.3572u  
  220.00000m    326.9426u  
  230.00000m    339.3165u  
  240.00000m    351.4796u  
  250.00000m    363.4326u  
  260.00000m    375.1761u  
  270.00000m    386.7109u  
  280.00000m    398.0375u  
  290.00000m    409.1567u  
  300.00000m    420.0691u  
  310.00000m    430.7754u  
  320.00000m    441.2761u  
  330.00000m    451.5720u  
  340.00000m    461.6638u  
  350.00000m    471.5521u  
  360.00000m    481.2374u  
  370.00000m    490.7206u  
  380.00000m    500.0022u  
  390.00000m    509.0829u  
  400.00000m    517.9634u  
  410.00000m    526.6442u  
  420.00000m    535.1261u  
  430.00000m    543.4097u  
  440.00000m    551.4957u  
  450.00000m    559.3847u  
  460.00000m    567.0774u  
  470.00000m    574.5744u  
  480.00000m    581.8765u  
  490.00000m    588.9843u  
  500.00000m    595.8985u  
  510.00000m    602.6198u  
  520.00000m    609.1490u  
  530.00000m    615.4867u  
  540.00000m    621.6337u  
  550.00000m    627.5908u  
  560.00000m    633.3588u  
  570.00000m    638.9384u  
  580.00000m    644.3306u  
  590.00000m    649.5363u  
  600.00000m    654.5564u  
  610.00000m    659.3920u  
  620.00000m    664.0441u  
  630.00000m    668.5139u  
  640.00000m    672.8027u  
  650.00000m    676.9120u  
  660.00000m    680.8433u  
  670.00000m    684.5983u  
  680.00000m    688.1790u  
  690.00000m    691.5876u  
  700.00000m    694.8264u  
  710.00000m    697.8982u  
  720.00000m    700.8062u  
  730.00000m    703.5538u  
  740.00000m    706.1448u  
  750.00000m    708.5836u  
  760.00000m    710.8748u  
  770.00000m    713.0238u  
  780.00000m    715.0361u  
  790.00000m    716.9177u  
  800.00000m    718.6749u  
  810.00000m    720.3144u  
  820.00000m    721.8431u  
  830.00000m    723.2676u  
  840.00000m    724.5951u  
  850.00000m    725.8323u  
  860.00000m    726.9859u  
  870.00000m    728.0622u  
  880.00000m    729.0675u  
  890.00000m    730.0075u  
  900.00000m    730.8876u  
  910.00000m    731.7129u  
  920.00000m    732.4881u  
  930.00000m    733.2174u  
  940.00000m    733.9049u  
  950.00000m    734.5541u  
  960.00000m    735.1683u  
  970.00000m    735.7504u  
  980.00000m    736.3033u  
  990.00000m    736.8292u  
    1.00000     737.3305u  
    1.01000     737.8092u  
    1.02000     738.2670u  
    1.03000     738.7056u  
    1.04000     739.1266u  
    1.05000     739.5312u  
    1.06000     739.9207u  
    1.07000     740.2962u  
    1.08000     740.6588u  
    1.09000     741.0093u  
    1.10000     741.3487u  
    1.11000     741.6776u  
    1.12000     741.9969u  
    1.13000     742.3070u  
    1.14000     742.6087u  
    1.15000     742.9025u  
    1.16000     743.1888u  
    1.17000     743.4682u  
    1.18000     743.7411u  
    1.19000     744.0078u  
    1.20000     744.2687u  
    1.21000     744.5242u  
    1.22000     744.7745u  
    1.23000     745.0200u  
    1.24000     745.2609u  
    1.25000     745.4975u  
    1.26000     745.7300u  
    1.27000     745.9586u  
    1.28000     746.1835u  
    1.29000     746.4049u  
    1.30000     746.6230u  
    1.31000     746.8379u  
    1.32000     747.0498u  
    1.33000     747.2589u  
    1.34000     747.4652u  
    1.35000     747.6690u  
    1.36000     747.8702u  
    1.37000     748.0691u  
    1.38000     748.2658u  
    1.39000     748.4602u  
    1.40000     748.6526u  
    1.41000     748.8431u  
    1.42000     749.0316u  
    1.43000     749.2183u  
    1.44000     749.4033u  
    1.45000     749.5866u  
    1.46000     749.7683u  
    1.47000     749.9484u  
    1.48000     750.1271u  
    1.49000     750.3044u  
    1.50000     750.4802u  
    1.51000     750.6548u  
    1.52000     750.8281u  
    1.53000     751.0002u  
    1.54000     751.1711u  
    1.55000     751.3409u  
    1.56000     751.5095u  
    1.57000     751.6771u  
    1.58000     751.8438u  
    1.59000     752.0094u  
    1.60000     752.1740u  
    1.61000     752.3378u  
    1.62000     752.5007u  
    1.63000     752.6627u  
    1.64000     752.8239u  
    1.65000     752.9842u  
    1.66000     753.1438u  
    1.67000     753.3027u  
    1.68000     753.4608u  
    1.69000     753.6182u  
    1.70000     753.7750u  
    1.71000     753.9310u  
    1.72000     754.0865u  
    1.73000     754.2413u  
    1.74000     754.3955u  
    1.75000     754.5491u  
    1.76000     754.7021u  
    1.77000     754.8546u  
    1.78000     755.0066u  
    1.79000     755.1580u  
    1.80000     755.3089u  
y
 ******  
 .title nmos

  ******  dc transfer curves tnom=  25.000 temp=  25.000 *****

   *** source        0:vgs =    1.8000        ***

x

        volt    current    
                    m1     
    0.            0.       
   10.00000m     18.8996u  
   20.00000m     37.5881u  
   30.00000m     56.0661u  
   40.00000m     74.3342u  
   50.00000m     92.3930u  
   60.00000m    110.2431u  
   70.00000m    127.8852u  
   80.00000m    145.3199u  
   90.00000m    162.5478u  
  100.00000m    179.5694u  
  110.00000m    196.3855u  
  120.00000m    212.9965u  
  130.00000m    229.4031u  
  140.00000m    245.6060u  
  150.00000m    261.6056u  
  160.00000m    277.4026u  
  170.00000m    292.9976u  
  180.00000m    308.3912u  
  190.00000m    323.5839u  
  200.00000m    338.5764u  
  210.00000m    353.3692u  
  220.00000m    367.9629u  
  230.00000m    382.3581u  
  240.00000m    396.5554u  
  250.00000m    410.5552u  
  260.00000m    424.3583u  
  270.00000m    437.9652u  
  280.00000m    451.3765u  
  290.00000m    464.5926u  
  300.00000m    477.6142u  
  310.00000m    490.4419u  
  320.00000m    503.0762u  
  330.00000m    515.5176u  
  340.00000m    527.7668u  
  350.00000m    539.8242u  
  360.00000m    551.6905u  
  370.00000m    563.3661u  
  380.00000m    574.8517u  
  390.00000m    586.1478u  
  400.00000m    597.2548u  
  410.00000m    608.1735u  
  420.00000m    618.9043u  
  430.00000m    629.4477u  
  440.00000m    639.8043u  
  450.00000m    649.9746u  
  460.00000m    659.9593u  
  470.00000m    669.7587u  
  480.00000m    679.3735u  
  490.00000m    688.8041u  
  500.00000m    698.0512u  
  510.00000m    707.1152u  
  520.00000m    715.9967u  
  530.00000m    724.6962u  
  540.00000m    733.2143u  
  550.00000m    741.5514u  
  560.00000m    749.7082u  
  570.00000m    757.6851u  
  580.00000m    765.4827u  
  590.00000m    773.1015u  
  600.00000m    780.5421u  
  610.00000m    787.8049u  
  620.00000m    794.8907u  
  630.00000m    801.7998u  
  640.00000m    808.5329u  
  650.00000m    815.0905u  
  660.00000m    821.4733u  
  670.00000m    827.6817u  
  680.00000m    833.7164u  
  690.00000m    839.5781u  
  700.00000m    845.2672u  
  710.00000m    850.7846u  
  720.00000m    856.1309u  
  730.00000m    861.3068u  
  740.00000m    866.3130u  
  750.00000m    871.1505u  
  760.00000m    875.8200u  
  770.00000m    880.3224u  
  780.00000m    884.6589u  
  790.00000m    888.8305u  
  800.00000m    892.8385u  
  810.00000m    896.6842u  
  820.00000m    900.3691u  
  830.00000m    903.8949u  
  840.00000m    907.2636u  
  850.00000m    910.4773u  
  860.00000m    913.5384u  
  870.00000m    916.4497u  
  880.00000m    919.2141u  
  890.00000m    921.8351u  
  900.00000m    924.3163u  
  910.00000m    926.6618u  
  920.00000m    928.8762u  
  930.00000m    930.9641u  
  940.00000m    932.9307u  
  950.00000m    934.7814u  
  960.00000m    936.5217u  
  970.00000m    938.1573u  
  980.00000m    939.6941u  
  990.00000m    941.1379u  
    1.00000     942.4945u  
    1.01000     943.7697u  
    1.02000     944.9688u  
    1.03000     946.0974u  
    1.04000     947.1604u  
    1.05000     948.1626u  
    1.06000     949.1087u  
    1.07000     950.0029u  
    1.08000     950.8492u  
    1.09000     951.6512u  
    1.10000     952.4124u  
    1.11000     953.1358u  
    1.12000     953.8245u  
    1.13000     954.4809u  
    1.14000     955.1077u  
    1.15000     955.7070u  
    1.16000     956.2809u  
    1.17000     956.8312u  
    1.18000     957.3596u  
    1.19000     957.8678u  
    1.20000     958.3571u  
    1.21000     958.8289u  
    1.22000     959.2844u  
    1.23000     959.7246u  
    1.24000     960.1507u  
    1.25000     960.5635u  
    1.26000     960.9639u  
    1.27000     961.3527u  
    1.28000     961.7306u  
    1.29000     962.0983u  
    1.30000     962.4564u  
    1.31000     962.8055u  
    1.32000     963.1461u  
    1.33000     963.4788u  
    1.34000     963.8038u  
    1.35000     964.1218u  
    1.36000     964.4331u  
    1.37000     964.7380u  
    1.38000     965.0368u  
    1.39000     965.3300u  
    1.40000     965.6178u  
    1.41000     965.9005u  
    1.42000     966.1783u  
    1.43000     966.4514u  
    1.44000     966.7202u  
    1.45000     966.9848u  
    1.46000     967.2454u  
    1.47000     967.5022u  
    1.48000     967.7554u  
    1.49000     968.0051u  
    1.50000     968.2516u  
    1.51000     968.4949u  
    1.52000     968.7351u  
    1.53000     968.9725u  
    1.54000     969.2071u  
    1.55000     969.4391u  
    1.56000     969.6685u  
    1.57000     969.8955u  
    1.58000     970.1201u  
    1.59000     970.3426u  
    1.60000     970.5628u  
    1.61000     970.7810u  
    1.62000     970.9972u  
    1.63000     971.2115u  
    1.64000     971.4240u  
    1.65000     971.6347u  
    1.66000     971.8437u  
    1.67000     972.0510u  
    1.68000     972.2568u  
    1.69000     972.4610u  
    1.70000     972.6637u  
    1.71000     972.8650u  
    1.72000     973.0650u  
    1.73000     973.2636u  
    1.74000     973.4610u  
    1.75000     973.6571u  
    1.76000     973.8520u  
    1.77000     974.0457u  
    1.78000     974.2383u  
    1.79000     974.4299u  
    1.80000     974.6203u  
y
1****** HSPICE -- F-2011.09-SP2 32-BIT (Feb 27 2012) linux ******               
 ******  
 .title nmos

  ******  operating point information tnom=  25.000 temp=  25.000 *****
 ***** operating point status is all       simulation time is     0.     
    node    =voltage      node    =voltage

 +0:vd      =   0.      0:vg      =   0.     


 **** voltage sources

 subckt                        
 element  0:vds      0:vgs     
  volts      0.         0.     
  current    0.         0.     
  power      0.         0.     

     total voltage source power dissipation=    0.            watts




 **** mosfets


 subckt             
 element  0:m1      
 model    0:n_18    
 region       Cutoff
  id         0.     
  ibs        0.     
  ibd        0.     
  vgs        0.     
  vds        0.     
  vbs        0.     
  vth      425.5692m
  vdsat     32.9210m
  vod     -425.5692m
  beta       1.7347m
  gam eff  594.2639m
  gm         0.     
  gds      734.2992p
  gmb        0.     
  cdtot      4.5929f
  cgtot     24.0065f
  cstot      4.5928f
  cbtot     14.8843f
  cgs        4.6289f
  cgd        4.4935f




          ***** job concluded
1****** HSPICE -- F-2011.09-SP2 32-BIT (Feb 27 2012) linux ******               
 ******  
 .title nmos

  ******  job statistics summary tnom=  25.000 temp=  25.000 *****
  
  
 ******  Machine Information  ******
 CPU:
 model name	: Intel(R) Xeon(R) CPU E3-1240 V2 @ 3.40GHz
 cpu MHz	: 3401.000
  
 OS:
 Linux version 2.6.32-358.14.1.el6.x86_64 (mockbuild@c6b10.bsys.dev.centos.org) 
 (gcc version 4.4.7 20120313 (Red Hat 4.4.7-3) (GCC) ) #1 SMP Tue Jul 16 23:51:2
 0 UTC 2013


  ******  HSPICE Threads Information  ******

  Command Line Threads Count :     1
  Available CPU Count        :     8
  Actual Threads Count       :     1


  ******  Circuit Statistics  ******
  # nodes       =       3 # elements   =       3
  # resistors   =       0 # capacitors =       0 # inductors   =       0
  # mutual_inds =       0 # vccs       =       0 # vcvs        =       0
  # cccs        =       0 # ccvs       =       0 # volt_srcs   =       2
  # curr_srcs   =       0 # diodes     =       0 # bjts        =       0
  # jfets       =       0 # mosfets    =       1 # U elements  =       0
  # T elements  =       0 # W elements =       0 # B elements  =       0
  # S elements  =       0 # P elements =       0 # va device   =       0
  # vector_srcs =       0


  ******  Runtime Statistics (seconds)  ******

  analysis           time    # points   tot. iter  conv.iter
  op point           0.00           1           3
  dc sweep           0.02        1267        2541
  readin             0.01
  errchk             0.00
  setup              0.00
  output             0.00


           peak memory used         95.43 megabytes
           total cpu time            0.03 seconds
           total elapsed time        0.38 seconds
           job started at     12:18:59 10/13/2013
           job ended   at     12:19:00 10/13/2013


 lic: Release hspice token(s) 
