Using: /usr/local/apps/synopsys/current_hspice/hspice/linux/hspice nmos_diff_rload.sp
 ****** HSPICE -- F-2011.09-SP2 32-BIT (Feb 27 2012) linux ******               
  Copyright (C) 2011 Synopsys, Inc. All Rights Reserved.                        
  Unpublished-rights reserved under US copyright laws.
  This program is protected by law and is subject to the
  terms and conditions of the license agreement from Synopsys.
  Use of this program is your acceptance to be bound by the
  license agreement. HSPICE is the trademark of Synopsys, Inc.
  Input File: nmos_diff_rload.sp                                                
  Command line options: nmos_diff_rload.sp
 lic:  
 lic: FLEXlm: v10.8 
 lic: USER:   goynese              HOSTNAME: kec1130-14.engr.oregonstate.edu 
 lic: HOSTID: 24be0511c109         PID:      9635 
 lic: Using FLEXlm license file: 
 lic: 7188@license.eecs.oregonstate.edu 
 lic: Checkout 1 hspice 
 lic: License/Maintenance for hspice will expire on 11-aug-2014/2013.03 
 lic: 6(in_use)/50(total) FLOATING license(s) on SERVER license.eecs.oregonstate
 lic:   
 Init: read install configuration file: /usr/local/apps/synopsys/current_hspice/hspice/meta.cfg
1****** HSPICE -- F-2011.09-SP2 32-BIT (Feb 27 2012) linux ******               
 ******  
 nmos

  ******  mos   model parameters tnom=  25.000 temp=  25.000 *****
 ***************************************************************************
 ***        model parameters  model name:   0:n_18     model type:nmos   ***
 ***************************************************************************

   *** general parameters ***
    deriv=   0.           

   ***  level 49  model parameters  ***

      hspver=    2006.03               level=         49         
     version=        3.1            paramchk=          0         
      apwarn=          1                lite=          0         
      vgslim=          0             binUnit=          1         
      capMod=          2               xpart=        0.5         
      mobMod=          1              nqsMod=          0         
      stiMod=          0                 elm=          5         
    sfvtflag=          0                 tox=    4.1e-09 meter   
          xj=      1e-07 meter       binflag=          0         
        lmin=          0 meter          lmax=          0 meter   
        wmin=          0 meter          wmax=          0 meter   
        lref=          0 meter          wref=          0 meter   
        lint=7.65986e-09 meter          wint=          0 meter   
       lmult=          1               wmult=          1         
          ll=          0                 lln=          1         
          lw=          0                 lwn=          1         
         lwl=          0                  wl=          0         
         wln=          1                  ww=          0         
         wwn=          1                 wwl=          0         
         dwg=-1.17694e-08 m/V             dwb=1.96583e-08 m/V^1/2 
          xl=          0                  xw=     -1e-08         
          a0=          2                 ags=   0.428182 V^-1    
          b0=-4.43566e-09 meter            b1=     -1e-07 meter   
        keta=-0.00873409 V^-1           voff= -0.0909514 V       
       ngate=          0 cm^-3           vbx=          0 V       
         vbm=         -3 V                xt=   1.55e-07 meter   
        vth0=   0.376033 V               nch= 2.3549e+17 cm^-3   
        nsub=      6e+16 cm^-3           nlx=1.83658e-07 meter   
      gamma1=          0 V^-1/2       gamma2=          0 V^-1/2  
          k1=   0.598252 V^1/2            k2= 0.00204285         
          k3=      0.001                 k3b=    5.47338 V^-1    
          w0=      1e-07 meter          dvt0=    1.38283         
        dvt1=   0.374633                dvt2=  0.0524724 V^-1    
       dvt0w=          0 meter^-1      dvt1w=          0 meter^-1
       dvt2w=          0 V^-1           dsub= 0.00880778         
        eta0=  0.0029649                etab=9.02839e-05 V^-1    
          u0=    265.099 cm^2/V/sec         ua=-1.34288e-09 m/V     
          ub=2.21876e-18 (m/V)^2          uc=5.30227e-11 V^-1    
        vsat=      99674 m/sec            a1=0.000117788 v^-1    
          a2=          1               delta=       0.01 V       
        rdsw=        150 ohm-um         prwg=        0.5 V^-1    
        prwb=       -0.2 V^-1/2           wr=          1         
        pclm=   0.739383             pdiblc1=   0.240506         
     pdiblc2= 0.00238467             pdiblcb=       -0.1 V^-1    
      pscbe1=2.25061e+09 V/m          pscbe2=5.50405e-09 V/m     
       drout=   0.810147                pvag= 0.00820885         
     nfactor=    2.47421                cdsc=    0.00024 f/m^2   
       cdscb=          0 f/V/m^2       cdscd=          0 f/V/m^2 
         cit=          0 f/m^2        alpha0=          0 m/V     
       beta0=         30 V               dlc=7.65986e-09 meter   
         dwc=          0 meter           clc=      1e-07 meter   
         cle=        0.6                cgso=   7.68e-10 f/m     
        cgdo=   7.68e-10 f/m            cgbo=      1e-12 f/m     
        cgsl=          0 f/m            cgdl=          0 f/m     
      ckappa=        0.6                  cf=          0 f/m     
        tnom=     300.15 K               kt1=      -0.11 V       
        kt1l=          0                 kt2=      0.022         
         ute=       -1.5                 ua1=   4.31e-09 m/V     
         ub1=  -7.61e-18 (m/V)^2         uc1=   -5.6e-11 m/V^2   
          at=      33000 m/s             prt=          0         
         using Berkeley noise model       noiMod=          1         
        noia=      1e+20                noib=      50000         
        noic=   -1.4e-12                  em=    4.1e+07         
          ef=          1                  af=          1         
          kf=          0              gdsnoi=-1.23457e-29         
         using Hspice diodes            using ACM 
         acm=         0                 hdif=         0 meter    
        ldif=         0 meter             js=         0 amp/m^2  
         jsw=         0 amp/m            xti=         0          
           n=         1                   cj=0.00096236 f/m^2    
          mj=  0.380501                   pb=       0.8 V        
        cjsw=2.37186e-10 f/m             mjsw=  0.107791          
         php=       0.8 V               pbsw (not used)           
      cjgate=2.37186e-10 f/m            cjswg (not used)           
       mjswg (not used)                 pbswg (not used)           
       lketa=-0.00944713               wketa= 0.00500085         
       pketa=-0.00308008               pvth0=-0.000919017         
         pk2=0.000320258               peta0=9.33065e-05         
         pu0=    32.7094                 pua=1.35883e-10         
       pvsat=    2004.06               prdsw=         -5         
 ***************************************************************************
 ***        model parameters  model name:   0:p_18     model type:pmos   ***
 ***************************************************************************

   *** general parameters ***
    deriv=   0.           

   ***  level 49  model parameters  ***

      hspver=    2006.03               level=         49         
     version=        3.1            paramchk=          0         
      apwarn=          1                lite=          0         
      vgslim=          0             binUnit=          1         
      capMod=          2               xpart=        0.5         
      mobMod=          1              nqsMod=          0         
      stiMod=          0                 elm=          5         
    sfvtflag=          0                 tox=    4.1e-09 meter   
          xj=      1e-07 meter       binflag=          0         
        lmin=          0 meter          lmax=          0 meter   
        wmin=          0 meter          wmax=          0 meter   
        lref=          0 meter          wref=          0 meter   
        lint=2.40594e-08 meter          wint=          0 meter   
       lmult=          1               wmult=          1         
          ll=          0                 lln=          1         
          lw=          0                 lwn=          1         
         lwl=          0                  wl=          0         
         wln=          1                  ww=          0         
         wwn=          1                 wwl=          0         
         dwg=-4.41769e-08 m/V             dwb=6.97017e-09 m/V^1/2 
          xl=          0                  xw=     -1e-08         
          a0=    1.84138                 ags=   0.400689 V^-1    
          b0=7.65708e-07 meter            b1=2.52826e-06 meter   
        keta=  0.0145743 V^-1           voff= -0.0984894 V       
       ngate=          0 cm^-3           vbx=          0 V       
         vbm=         -3 V                xt=   1.55e-07 meter   
        vth0=  -0.404077 V               nch= 4.1589e+17 cm^-3   
        nsub=      6e+16 cm^-3           nlx=1.06879e-07 meter   
      gamma1=          0 V^-1/2       gamma2=          0 V^-1/2  
          k1=   0.583367 V^1/2            k2=  0.0301169         
          k3=          0                 k3b=    16.2021 V^-1    
          w0=      1e-06 meter          dvt0=   0.556918         
        dvt1=   0.246075                dvt2=        0.1 V^-1    
       dvt0w=          0 meter^-1      dvt1w=          0 meter^-1
       dvt2w=          0 V^-1           dsub=    1.02253         
        eta0=   0.152158                etab=  -0.099095 V^-1    
          u0=    116.046 cm^2/V/sec         ua=1.55704e-09 m/V     
          ub=      1e-21 (m/V)^2          uc=     -1e-10 V^-1    
        vsat=     199463 m/sec            a1=   0.373167 v^-1    
          a2=        0.3               delta=       0.01 V       
        rdsw=    287.511 ohm-um         prwg=        0.5 V^-1    
        prwb=  -0.135487 V^-1/2           wr=          1         
        pclm=     2.1661             pdiblc1=3.20891e-05         
     pdiblc2=  0.0164807             pdiblcb=     -0.001 V^-1    
      pscbe1=9.01974e+09 V/m          pscbe2=2.60511e-09 V/m     
       drout=          0                pvag=         15         
     nfactor=     1.8964                cdsc=    0.00024 f/m^2   
       cdscb=          0 f/V/m^2       cdscd=          0 f/V/m^2 
         cit=          0 f/m^2        alpha0=          0 m/V     
       beta0=         30 V               dlc=2.40594e-08 meter   
         dwc=          0 meter           clc=      1e-07 meter   
         cle=        0.6                cgso=   5.75e-10 f/m     
        cgdo=   5.75e-10 f/m            cgbo=      1e-12 f/m     
        cgsl=          0 f/m            cgdl=          0 f/m     
      ckappa=        0.6                  cf=          0 f/m     
        tnom=     300.15 K               kt1=      -0.11 V       
        kt1l=          0                 kt2=      0.022         
         ute=       -1.5                 ua1=   4.31e-09 m/V     
         ub1=  -7.61e-18 (m/V)^2         uc1=   -5.6e-11 m/V^2   
          at=      33000 m/s             prt=          0         
         using Berkeley noise model       noiMod=          1         
        noia=    9.9e+18                noib=       2400         
        noic=    1.4e-12                  em=    4.1e+07         
          ef=          1                  af=          1         
          kf=          0              gdsnoi=-1.23457e-29         
         using Hspice diodes            using ACM 
         acm=         0                 hdif=         0 meter    
        ldif=         0 meter             js=         0 amp/m^2  
         jsw=         0 amp/m            xti=         0          
           n=         1                   cj=0.00116394 f/m^2    
          mj=  0.419416                   pb=  0.865987 V        
        cjsw=1.65613e-10 f/m             mjsw=  0.368302          
         php=  0.865987 V               pbsw (not used)           
      cjgate=1.65613e-10 f/m            cjswg (not used)           
       mjswg (not used)                 pbswg (not used)           
       lketa=-0.00294233               wketa=  0.0266507         
       pketa=-0.00367958               pvth0= 0.00185699         
         pk2= 0.00155429               peta0=0.000100316         
         pu0=    -1.1074                 pua=-4.96912e-11         
         pub=      1e-21               pvsat=        -50         
       prdsw=   -1.14585         
 

  
      
 **info** set option symb=1 internally to help for convergence.
 *****************************************************************
 ******  option summary
 ******
 runlvl  = 3         bypass  = 2         
1****** HSPICE -- F-2011.09-SP2 32-BIT (Feb 27 2012) linux ******               
 ******  
 nmos

  ******  operating point information tnom=  25.000 temp=  25.000 *****
 ***** operating point status is all       simulation time is     0.     
    node    =voltage      node    =voltage      node    =voltage

 +0:b       = 420.7216m 0:g34     = 431.1056m 0:g56     =-477.9546m
 +0:vcc     = 900.0000m 0:vdd     =-900.0000m 0:vin1    =   4.0000 
 +0:vin2    =   4.0000  0:vout    = 431.1056m


 **** voltage sources

 subckt                                              
 element  0:vcc1     0:vdd1     0:vin1x    0:vin2x   
  volts    900.0000m -900.0000m    4.0000     4.0000 
  current -869.9345u  869.9345u    0.         0.     
  power    782.9411u  782.9411u    0.         0.     

     total voltage source power dissipation=    1.5659m       watts



 **** resistors

 subckt             
 element  0:r1      
  r value    8.5600k
  v drop     1.3780 
  current  160.9760u
  power    221.8176u



 **** mosfets


 subckt                                                                    
 element  0:m1       0:m2       0:m3       0:m4       0:m5       0:m6      
 model    0:n_18     0:n_18     0:p_18     0:p_18     0:n_18     0:n_18    
 region       Linear     Linear   Saturati   Saturati   Saturati   Saturati
  id       354.4793u  354.4793u -354.4793u -354.4793u  708.9585u  160.9760u
  ibs        0.         0.         0.         0.         0.         0.     
  ibd        0.         0.         0.         0.         0.         0.     
  vgs        3.5793     3.5793  -468.8944m -468.8944m  422.0454m  422.0454m
  vds       10.3840m   10.3840m -468.8944m -468.8944m    1.3207   422.0454m
  vbs     -420.7216m -420.7216m -900.0000m -900.0000m  900.0000m  900.0000m
  vth      583.0242m  583.0242m -246.7674m -246.7674m  224.1748m  230.7807m
  vdsat      2.0510     2.0510  -153.9433m -153.9433m  116.5018m  112.5946m
  vod        2.9963     2.9963  -222.1270m -222.1270m  197.8707m  191.2648m
  beta      14.5511m   14.5511m   21.0252m   21.0252m   69.8948m   17.5143m
  gam eff  593.6053m  593.6053m  545.6505m  545.6505m  595.7658m  595.7612m
  gm         0.         0.         3.1757m    3.1757m    8.3208m    1.9555m
  gds       34.0472m   34.0472m   47.4545u   47.4545u   70.9387u   19.7987u
  gmb       39.6175u   39.6175u  463.9127u  463.9127u  822.3794u  193.9524u
  cdtot    216.3987f  216.3987f  217.6437f  217.6437f  440.3806f  128.1977f
  cgtot    337.1741f  337.1741f  534.3330f  534.3330f    2.2695p  567.4123f
  cstot    143.5922f  143.5922f  420.5578f  420.5578f    1.3695p  342.4238f
  cbtot    178.1988f  178.1988f  361.6878f  361.6878f  790.9020f  215.8308f
  cgs      171.2772f  171.2772f  476.5907f  476.5907f    2.0916p  522.2227f
  cgd      164.7996f  164.7996f   69.3254f   69.3254f  186.5592f   47.0532f



 ***************************************************
   ******   pole/zero analysis  
  
  
    input =  0:vin1x          output = v(vout)
  
       poles (rad/sec)                 poles ( hertz)
 real            imag            real            imag            
 -671.851x       0.              -106.928x       0.              
 -2.23808g       0.              -356.201x       0.              
 -23.3283g       0.              -3.71282g       0.              
 -148.586g       0.              -23.6481g       0.              
  
       zeros (rad/sec)                 zeros ( hertz)
 real            imag            real            imag            
 0.              0.              0.              0.              
 -778.596x       0.              -123.917x       0.              
 -40.8350g       0.              -6.49909g       0.              
 -553.089g       0.              -88.0269g       0.              
  
  ***** constant factor = 138.733u
 ******  
 nmos

  ******  ac analysis tnom=  25.000 temp=  25.000 *****
x

        freq    volt db    
                   vout    
    1.00000k   -150.2687   
    1.02329k   -150.0687   
    1.04713k   -149.8687   
    1.07152k   -149.6687   
    1.09648k   -149.4687   
    1.12202k   -149.2687   
    1.14815k   -149.0687   
    1.17490k   -148.8687   
    1.20226k   -148.6687   
    1.23027k   -148.4687   
    1.25893k   -148.2687   
    1.28825k   -148.0687   
    1.31826k   -147.8687   
    1.34896k   -147.6687   
    1.38038k   -147.4687   
    1.41254k   -147.2687   
    1.44544k   -147.0687   
    1.47911k   -146.8687   
    1.51356k   -146.6687   
    1.54882k   -146.4687   
    1.58489k   -146.2687   
    1.62181k   -146.0687   
    1.65959k   -145.8687   
    1.69824k   -145.6687   
    1.73780k   -145.4687   
    1.77828k   -145.2687   
    1.81970k   -145.0687   
    1.86209k   -144.8687   
    1.90546k   -144.6687   
    1.94984k   -144.4687   
    1.99526k   -144.2687   
    2.04174k   -144.0687   
    2.08930k   -143.8687   
    2.13796k   -143.6687   
    2.18776k   -143.4687   
    2.23872k   -143.2687   
    2.29087k   -143.0687   
    2.34423k   -142.8687   
    2.39883k   -142.6687   
    2.45471k   -142.4687   
    2.51189k   -142.2687   
    2.57040k   -142.0687   
    2.63027k   -141.8687   
    2.69153k   -141.6687   
    2.75423k   -141.4687   
    2.81838k   -141.2687   
    2.88403k   -141.0687   
    2.95121k   -140.8687   
    3.01995k   -140.6687   
    3.09030k   -140.4687   
    3.16228k   -140.2687   
    3.23594k   -140.0687   
    3.31131k   -139.8687   
    3.38844k   -139.6687   
    3.46737k   -139.4687   
    3.54813k   -139.2687   
    3.63078k   -139.0687   
    3.71535k   -138.8687   
    3.80189k   -138.6687   
    3.89045k   -138.4687   
    3.98107k   -138.2687   
    4.07380k   -138.0687   
    4.16869k   -137.8687   
    4.26580k   -137.6687   
    4.36516k   -137.4687   
    4.46684k   -137.2687   
    4.57088k   -137.0687   
    4.67735k   -136.8687   
    4.78630k   -136.6687   
    4.89779k   -136.4687   
    5.01187k   -136.2687   
    5.12861k   -136.0687   
    5.24807k   -135.8687   
    5.37032k   -135.6687   
    5.49541k   -135.4687   
    5.62341k   -135.2687   
    5.75440k   -135.0687   
    5.88844k   -134.8687   
    6.02560k   -134.6687   
    6.16595k   -134.4687   
    6.30957k   -134.2687   
    6.45654k   -134.0687   
    6.60693k   -133.8687   
    6.76083k   -133.6687   
    6.91831k   -133.4687   
    7.07946k   -133.2687   
    7.24436k   -133.0687   
    7.41310k   -132.8687   
    7.58578k   -132.6687   
    7.76247k   -132.4687   
    7.94328k   -132.2687   
    8.12831k   -132.0687   
    8.31764k   -131.8687   
    8.51138k   -131.6687   
    8.70964k   -131.4687   
    8.91251k   -131.2687   
    9.12011k   -131.0687   
    9.33254k   -130.8687   
    9.54993k   -130.6687   
    9.77237k   -130.4687   
   10.00000k   -130.2687   
   10.23293k   -130.0687   
   10.47129k   -129.8687   
   10.71519k   -129.6687   
   10.96478k   -129.4687   
   11.22018k   -129.2687   
   11.48154k   -129.0687   
   11.74898k   -128.8687   
   12.02264k   -128.6687   
   12.30269k   -128.4687   
   12.58925k   -128.2687   
   12.88250k   -128.0687   
   13.18257k   -127.8687   
   13.48963k   -127.6687   
   13.80384k   -127.4687   
   14.12538k   -127.2687   
   14.45440k   -127.0687   
   14.79108k   -126.8687   
   15.13561k   -126.6687   
   15.48817k   -126.4687   
   15.84893k   -126.2687   
   16.21810k   -126.0687   
   16.59587k   -125.8687   
   16.98244k   -125.6687   
   17.37801k   -125.4687   
   17.78279k   -125.2687   
   18.19701k   -125.0687   
   18.62087k   -124.8687   
   19.05461k   -124.6687   
   19.49845k   -124.4687   
   19.95262k   -124.2687   
   20.41738k   -124.0687   
   20.89296k   -123.8687   
   21.37962k   -123.6687   
   21.87762k   -123.4687   
   22.38721k   -123.2687   
   22.90868k   -123.0687   
   23.44229k   -122.8687   
   23.98833k   -122.6687   
   24.54709k   -122.4687   
   25.11886k   -122.2687   
   25.70396k   -122.0687   
   26.30268k   -121.8687   
   26.91535k   -121.6687   
   27.54229k   -121.4687   
   28.18383k   -121.2687   
   28.84032k   -121.0687   
   29.51209k   -120.8687   
   30.19952k   -120.6687   
   30.90295k   -120.4687   
   31.62278k   -120.2687   
   32.35937k   -120.0687   
   33.11311k   -119.8687   
   33.88442k   -119.6687   
   34.67369k   -119.4687   
   35.48134k   -119.2687   
   36.30781k   -119.0687   
   37.15352k   -118.8687   
   38.01894k   -118.6687   
   38.90451k   -118.4687   
   39.81072k   -118.2687   
   40.73803k   -118.0687   
   41.68694k   -117.8687   
   42.65795k   -117.6687   
   43.65158k   -117.4687   
   44.66836k   -117.2687   
   45.70882k   -117.0687   
   46.77351k   -116.8687   
   47.86301k   -116.6687   
   48.97788k   -116.4687   
   50.11872k   -116.2687   
   51.28614k   -116.0687   
   52.48075k   -115.8687   
   53.70318k   -115.6687   
   54.95409k   -115.4687   
   56.23413k   -115.2687   
   57.54399k   -115.0687   
   58.88437k   -114.8687   
   60.25596k   -114.6687   
   61.65950k   -114.4687   
   63.09573k   -114.2687   
   64.56542k   -114.0687   
   66.06934k   -113.8687   
   67.60830k   -113.6687   
   69.18310k   -113.4687   
   70.79458k   -113.2687   
   72.44360k   -113.0687   
   74.13102k   -112.8687   
   75.85776k   -112.6687   
   77.62471k   -112.4687   
   79.43282k   -112.2687   
   81.28305k   -112.0687   
   83.17638k   -111.8687   
   85.11380k   -111.6687   
   87.09636k   -111.4687   
   89.12509k   -111.2687   
   91.20108k   -111.0687   
   93.32543k   -110.8687   
   95.49926k   -110.6687   
   97.72372k   -110.4687   
  100.00000k   -110.2687   
  102.32930k   -110.0687   
  104.71285k   -109.8687   
  107.15193k   -109.6687   
  109.64782k   -109.4687   
  112.20185k   -109.2687   
  114.81536k   -109.0687   
  117.48976k   -108.8687   
  120.22644k   -108.6687   
  123.02688k   -108.4687   
  125.89254k   -108.2687   
  128.82496k   -108.0687   
  131.82567k   -107.8687   
  134.89629k   -107.6687   
  138.03843k   -107.4687   
  141.25375k   -107.2687   
  144.54398k   -107.0687   
  147.91084k   -106.8687   
  151.35612k   -106.6687   
  154.88166k   -106.4687   
  158.48932k   -106.2687   
  162.18101k   -106.0687   
  165.95869k   -105.8687   
  169.82437k   -105.6687   
  173.78008k   -105.4687   
  177.82794k   -105.2687   
  181.97009k   -105.0687   
  186.20871k   -104.8687   
  190.54607k   -104.6687   
  194.98446k   -104.4687   
  199.52623k   -104.2687   
  204.17379k   -104.0687   
  208.92961k   -103.8687   
  213.79621k   -103.6687   
  218.77616k   -103.4687   
  223.87211k   -103.2687   
  229.08677k   -103.0687   
  234.42288k   -102.8687   
  239.88329k   -102.6687   
  245.47089k   -102.4687   
  251.18864k   -102.2687   
  257.03958k   -102.0687   
  263.02680k   -101.8687   
  269.15348k   -101.6687   
  275.42287k   -101.4687   
  281.83829k   -101.2687   
  288.40315k   -101.0687   
  295.12092k   -100.8687   
  301.99517k   -100.6687   
  309.02954k   -100.4687   
  316.22777k   -100.2687   
  323.59366k   -100.0687   
  331.13112k    -99.8688   
  338.84416k    -99.6688   
  346.73685k    -99.4688   
  354.81339k    -99.2688   
  363.07805k    -99.0688   
  371.53523k    -98.8688   
  380.18940k    -98.6688   
  389.04514k    -98.4688   
  398.10717k    -98.2688   
  407.38028k    -98.0688   
  416.86938k    -97.8688   
  426.57952k    -97.6688   
  436.51583k    -97.4688   
  446.68359k    -97.2688   
  457.08819k    -97.0688   
  467.73514k    -96.8688   
  478.63009k    -96.6688   
  489.77882k    -96.4688   
  501.18723k    -96.2688   
  512.86138k    -96.0688   
  524.80746k    -95.8688   
  537.03180k    -95.6688   
  549.54087k    -95.4688   
  562.34133k    -95.2688   
  575.43994k    -95.0688   
  588.84366k    -94.8688   
  602.55959k    -94.6688   
  616.59500k    -94.4688   
  630.95734k    -94.2688   
  645.65423k    -94.0688   
  660.69345k    -93.8688   
  676.08298k    -93.6688   
  691.83097k    -93.4688   
  707.94578k    -93.2688   
  724.43596k    -93.0688   
  741.31024k    -92.8688   
  758.57758k    -92.6688   
  776.24712k    -92.4688   
  794.32823k    -92.2688   
  812.83052k    -92.0688   
  831.76377k    -91.8688   
  851.13804k    -91.6688   
  870.96359k    -91.4688   
  891.25094k    -91.2688   
  912.01084k    -91.0688   
  933.25430k    -90.8688   
  954.99259k    -90.6688   
  977.23722k    -90.4688   
    1.00000x    -90.2688   
    1.02329x    -90.0688   
    1.04713x    -89.8688   
    1.07152x    -89.6688   
    1.09648x    -89.4688   
    1.12202x    -89.2688   
    1.14815x    -89.0688   
    1.17490x    -88.8689   
    1.20226x    -88.6689   
    1.23027x    -88.4689   
    1.25893x    -88.2689   
    1.28825x    -88.0689   
    1.31826x    -87.8689   
    1.34896x    -87.6689   
    1.38038x    -87.4689   
    1.41254x    -87.2689   
    1.44544x    -87.0689   
    1.47911x    -86.8689   
    1.51356x    -86.6689   
    1.54882x    -86.4689   
    1.58489x    -86.2689   
    1.62181x    -86.0690   
    1.65959x    -85.8690   
    1.69824x    -85.6690   
    1.73780x    -85.4690   
    1.77828x    -85.2690   
    1.81970x    -85.0690   
    1.86209x    -84.8690   
    1.90546x    -84.6690   
    1.94984x    -84.4691   
    1.99526x    -84.2691   
    2.04174x    -84.0691   
    2.08930x    -83.8691   
    2.13796x    -83.6691   
    2.18776x    -83.4691   
    2.23872x    -83.2692   
    2.29087x    -83.0692   
    2.34423x    -82.8692   
    2.39883x    -82.6692   
    2.45471x    -82.4692   
    2.51189x    -82.2693   
    2.57040x    -82.0693   
    2.63027x    -81.8693   
    2.69153x    -81.6693   
    2.75423x    -81.4694   
    2.81838x    -81.2694   
    2.88403x    -81.0694   
    2.95121x    -80.8695   
    3.01995x    -80.6695   
    3.09030x    -80.4695   
    3.16228x    -80.2696   
    3.23594x    -80.0696   
    3.31131x    -79.8696   
    3.38844x    -79.6697   
    3.46737x    -79.4697   
    3.54813x    -79.2698   
    3.63078x    -79.0698   
    3.71535x    -78.8699   
    3.80189x    -78.6699   
    3.89045x    -78.4700   
    3.98107x    -78.2700   
    4.07380x    -78.0701   
    4.16869x    -77.8702   
    4.26580x    -77.6702   
    4.36516x    -77.4703   
    4.46684x    -77.2704   
    4.57088x    -77.0705   
    4.67735x    -76.8705   
    4.78630x    -76.6706   
    4.89779x    -76.4707   
    5.01187x    -76.2708   
    5.12861x    -76.0709   
    5.24807x    -75.8710   
    5.37032x    -75.6711   
    5.49541x    -75.4712   
    5.62341x    -75.2713   
    5.75440x    -75.0715   
    5.88844x    -74.8716   
    6.02560x    -74.6717   
    6.16595x    -74.4719   
    6.30957x    -74.2720   
    6.45654x    -74.0722   
    6.60693x    -73.8723   
    6.76083x    -73.6725   
    6.91831x    -73.4727   
    7.07946x    -73.2729   
    7.24436x    -73.0731   
    7.41310x    -72.8733   
    7.58578x    -72.6735   
    7.76247x    -72.4737   
    7.94328x    -72.2739   
    8.12831x    -72.0742   
    8.31764x    -71.8744   
    8.51138x    -71.6747   
    8.70964x    -71.4750   
    8.91251x    -71.2753   
    9.12011x    -71.0756   
    9.33254x    -70.8759   
    9.54993x    -70.6762   
    9.77237x    -70.4766   
   10.00000x    -70.2770   
   10.23293x    -70.0773   
   10.47129x    -69.8777   
   10.71519x    -69.6782   
   10.96478x    -69.4786   
   11.22018x    -69.2791   
   11.48154x    -69.0795   
   11.74898x    -68.8801   
   12.02264x    -68.6806   
   12.30269x    -68.4811   
   12.58925x    -68.2817   
   12.88250x    -68.0823   
   13.18257x    -67.8830   
   13.48963x    -67.6836   
   13.80384x    -67.4843   
   14.12538x    -67.2850   
   14.45440x    -67.0858   
   14.79108x    -66.8866   
   15.13561x    -66.6874   
   15.48817x    -66.4883   
   15.84893x    -66.2892   
   16.21810x    -66.0901   
   16.59587x    -65.8911   
   16.98244x    -65.6922   
   17.37801x    -65.4933   
   17.78279x    -65.2944   
   18.19701x    -65.0956   
   18.62087x    -64.8968   
   19.05461x    -64.6981   
   19.49845x    -64.4995   
   19.95262x    -64.3009   
   20.41738x    -64.1024   
   20.89296x    -63.9039   
   21.37962x    -63.7055   
   21.87762x    -63.5072   
   22.38721x    -63.3090   
   22.90868x    -63.1108   
   23.44229x    -62.9128   
   23.98833x    -62.7148   
   24.54709x    -62.5169   
   25.11886x    -62.3191   
   25.70396x    -62.1214   
   26.30268x    -61.9237   
   26.91535x    -61.7262   
   27.54229x    -61.5288   
   28.18383x    -61.3316   
   28.84032x    -61.1344   
   29.51209x    -60.9373   
   30.19952x    -60.7404   
   30.90295x    -60.5436   
   31.62278x    -60.3470   
   32.35937x    -60.1505   
   33.11311x    -59.9541   
   33.88442x    -59.7579   
   34.67369x    -59.5618   
   35.48134x    -59.3660   
   36.30781x    -59.1702   
   37.15352x    -58.9747   
   38.01894x    -58.7793   
   38.90451x    -58.5841   
   39.81072x    -58.3892   
   40.73803x    -58.1944   
   41.68694x    -57.9998   
   42.65795x    -57.8055   
   43.65158x    -57.6113   
   44.66836x    -57.4174   
   45.70882x    -57.2237   
   46.77351x    -57.0303   
   47.86301x    -56.8371   
   48.97788x    -56.6442   
   50.11872x    -56.4515   
   51.28614x    -56.2591   
   52.48075x    -56.0670   
   53.70318x    -55.8752   
   54.95409x    -55.6836   
   56.23413x    -55.4924   
   57.54399x    -55.3014   
   58.88437x    -55.1108   
   60.25596x    -54.9205   
   61.65950x    -54.7306   
   63.09573x    -54.5410   
   64.56542x    -54.3517   
   66.06934x    -54.1627   
   67.60830x    -53.9742   
   69.18310x    -53.7860   
   70.79458x    -53.5982   
   72.44360x    -53.4107   
   74.13102x    -53.2237   
   75.85776x    -53.0370   
   77.62471x    -52.8508   
   79.43282x    -52.6649   
   81.28305x    -52.4795   
   83.17638x    -52.2945   
   85.11380x    -52.1100   
   87.09636x    -51.9258   
   89.12509x    -51.7422   
   91.20108x    -51.5590   
   93.32543x    -51.3762   
   95.49926x    -51.1940   
   97.72372x    -51.0122   
  100.00000x    -50.8309   
  102.32930x    -50.6501   
  104.71285x    -50.4698   
  107.15193x    -50.2901   
  109.64782x    -50.1109   
  112.20185x    -49.9322   
  114.81536x    -49.7541   
  117.48976x    -49.5765   
  120.22644x    -49.3995   
  123.02688x    -49.2231   
  125.89254x    -49.0473   
  128.82496x    -48.8721   
  131.82567x    -48.6975   
  134.89629x    -48.5236   
  138.03843x    -48.3504   
  141.25375x    -48.1778   
  144.54398x    -48.0059   
  147.91084x    -47.8347   
  151.35612x    -47.6643   
  154.88166x    -47.4945   
  158.48932x    -47.3256   
  162.18101x    -47.1574   
  165.95869x    -46.9900   
  169.82437x    -46.8235   
  173.78008x    -46.6577   
  177.82794x    -46.4928   
  181.97009x    -46.3288   
  186.20871x    -46.1657   
  190.54607x    -46.0035   
  194.98446x    -45.8422   
  199.52623x    -45.6819   
  204.17379x    -45.5225   
  208.92961x    -45.3641   
  213.79621x    -45.2066   
  218.77616x    -45.0502   
  223.87211x    -44.8948   
  229.08677x    -44.7405   
  234.42288x    -44.5872   
  239.88329x    -44.4349   
  245.47089x    -44.2837   
  251.18864x    -44.1336   
  257.03958x    -43.9845   
  263.02680x    -43.8365   
  269.15348x    -43.6896   
  275.42287x    -43.5438   
  281.83829x    -43.3990   
  288.40315x    -43.2553   
  295.12092x    -43.1126   
  301.99517x    -42.9710   
  309.02954x    -42.8304   
  316.22777x    -42.6908   
  323.59366x    -42.5522   
  331.13112x    -42.4146   
  338.84416x    -42.2779   
  346.73685x    -42.1421   
  354.81339x    -42.0073   
  363.07805x    -41.8732   
  371.53523x    -41.7400   
  380.18940x    -41.6076   
  389.04514x    -41.4759   
  398.10717x    -41.3450   
  407.38028x    -41.2147   
  416.86938x    -41.0849   
  426.57952x    -40.9558   
  436.51583x    -40.8272   
  446.68359x    -40.6990   
  457.08819x    -40.5713   
  467.73514x    -40.4439   
  478.63009x    -40.3168   
  489.77882x    -40.1900   
  501.18723x    -40.0634   
  512.86138x    -39.9369   
  524.80746x    -39.8105   
  537.03180x    -39.6842   
  549.54087x    -39.5578   
  562.34133x    -39.4314   
  575.43994x    -39.3048   
  588.84366x    -39.1781   
  602.55959x    -39.0511   
  616.59500x    -38.9239   
  630.95734x    -38.7964   
  645.65423x    -38.6685   
  660.69345x    -38.5402   
  676.08298x    -38.4114   
  691.83097x    -38.2822   
  707.94578x    -38.1525   
  724.43596x    -38.0223   
  741.31024x    -37.8915   
  758.57758x    -37.7601   
  776.24712x    -37.6281   
  794.32823x    -37.4954   
  812.83052x    -37.3622   
  831.76377x    -37.2282   
  851.13804x    -37.0937   
  870.96359x    -36.9584   
  891.25094x    -36.8225   
  912.01084x    -36.6859   
  933.25430x    -36.5487   
  954.99259x    -36.4108   
  977.23722x    -36.2723   
    1.00000g    -36.1332   
y

a


      freq       vdb(vout)
 (a       )    -200.0000     -150.0000     -100.0000      -50.0000       0.     
                      +             +             +             +             + 
    1.0000k -150.269 -+------+------a------+------+------+------+------+------+-
    1.0233k -150.069  +      +      a      +      +      +      +      +      + 
    1.0471k -149.869  +      +      a      +      +      +      +      +      + 
    1.0715k -149.669  +      +      a      +      +      +      +      +      + 
    1.0965k -149.469  +      +      a      +      +      +      +      +      + 
    1.1220k -149.269  +      +      a      +      +      +      +      +      + 
    1.1482k -149.069  +      +      a      +      +      +      +      +      + 
    1.1749k -148.869  +      +      a      +      +      +      +      +      + 
    1.2023k -148.669  +      +      a      +      +      +      +      +      + 
    1.2303k -148.469  +      +      a      +      +      +      +      +      + 
    1.2589k -148.269 -+------+------a------+------+------+------+------+------+-
    1.2882k -148.069  +      +      +a     +      +      +      +      +      + 
    1.3183k -147.869  +      +      +a     +      +      +      +      +      + 
    1.3490k -147.669  +      +      +a     +      +      +      +      +      + 
    1.3804k -147.469  +      +      +a     +      +      +      +      +      + 
    1.4125k -147.269  +      +      +a     +      +      +      +      +      + 
    1.4454k -147.069  +      +      +a     +      +      +      +      +      + 
    1.4791k -146.869  +      +      +a     +      +      +      +      +      + 
    1.5136k -146.669  +      +      +a     +      +      +      +      +      + 
    1.5488k -146.469  +      +      +a     +      +      +      +      +      + 
    1.5849k -146.269 -+------+------+a-----+------+------+------+------+------+-
    1.6218k -146.069  +      +      +a     +      +      +      +      +      + 
    1.6596k -145.869  +      +      +a     +      +      +      +      +      + 
    1.6982k -145.669  +      +      +a     +      +      +      +      +      + 
    1.7378k -145.469  +      +      +a     +      +      +      +      +      + 
    1.7783k -145.269  +      +      +a     +      +      +      +      +      + 
    1.8197k -145.069  +      +      +a     +      +      +      +      +      + 
    1.8621k -144.869  +      +      +a     +      +      +      +      +      + 
    1.9055k -144.669  +      +      +a     +      +      +      +      +      + 
    1.9498k -144.469  +      +      + a    +      +      +      +      +      + 
    1.9953k -144.269 -+------+------+-a----+------+------+------+------+------+-
    2.0417k -144.069  +      +      + a    +      +      +      +      +      + 
    2.0893k -143.869  +      +      + a    +      +      +      +      +      + 
    2.1380k -143.669  +      +      + a    +      +      +      +      +      + 
    2.1878k -143.469  +      +      + a    +      +      +      +      +      + 
    2.2387k -143.269  +      +      + a    +      +      +      +      +      + 
    2.2909k -143.069  +      +      + a    +      +      +      +      +      + 
    2.3442k -142.869  +      +      + a    +      +      +      +      +      + 
    2.3988k -142.669  +      +      + a    +      +      +      +      +      + 
    2.4547k -142.469  +      +      + a    +      +      +      +      +      + 
    2.5119k -142.269 -+------+------+-a----+------+------+------+------+------+-
    2.5704k -142.069  +      +      + a    +      +      +      +      +      + 
    2.6303k -141.869  +      +      + a    +      +      +      +      +      + 
    2.6915k -141.669  +      +      + a    +      +      +      +      +      + 
    2.7542k -141.469  +      +      + a    +      +      +      +      +      + 
    2.8184k -141.269  +      +      + a    +      +      +      +      +      + 
    2.8840k -141.069  +      +      +  a   +      +      +      +      +      + 
    2.9512k -140.869  +      +      +  a   +      +      +      +      +      + 
    3.0200k -140.669  +      +      +  a   +      +      +      +      +      + 
    3.0903k -140.469  +      +      +  a   +      +      +      +      +      + 
    3.1623k -140.269 -+------+------+--a---+------+------+------+------+------+-
    3.2359k -140.069  +      +      +  a   +      +      +      +      +      + 
    3.3113k -139.869  +      +      +  a   +      +      +      +      +      + 
    3.3884k -139.669  +      +      +  a   +      +      +      +      +      + 
    3.4674k -139.469  +      +      +  a   +      +      +      +      +      + 
    3.5481k -139.269  +      +      +  a   +      +      +      +      +      + 
    3.6308k -139.069  +      +      +  a   +      +      +      +      +      + 
    3.7154k -138.869  +      +      +  a   +      +      +      +      +      + 
    3.8019k -138.669  +      +      +  a   +      +      +      +      +      + 
    3.8905k -138.469  +      +      +  a   +      +      +      +      +      + 
    3.9811k -138.269 -+------+------+--a---+------+------+------+------+------+-
    4.0738k -138.069  +      +      +  a   +      +      +      +      +      + 
    4.1687k -137.869  +      +      +  a   +      +      +      +      +      + 
    4.2658k -137.669  +      +      +  a   +      +      +      +      +      + 
    4.3652k -137.469  +      +      +   a  +      +      +      +      +      + 
    4.4668k -137.269  +      +      +   a  +      +      +      +      +      + 
    4.5709k -137.069  +      +      +   a  +      +      +      +      +      + 
    4.6774k -136.869  +      +      +   a  +      +      +      +      +      + 
    4.7863k -136.669  +      +      +   a  +      +      +      +      +      + 
    4.8978k -136.469  +      +      +   a  +      +      +      +      +      + 
    5.0119k -136.269 -+------+------+---a--+------+------+------+------+------+-
    5.1286k -136.069  +      +      +   a  +      +      +      +      +      + 
    5.2481k -135.869  +      +      +   a  +      +      +      +      +      + 
    5.3703k -135.669  +      +      +   a  +      +      +      +      +      + 
    5.4954k -135.469  +      +      +   a  +      +      +      +      +      + 
    5.6234k -135.269  +      +      +   a  +      +      +      +      +      + 
    5.7544k -135.069  +      +      +   a  +      +      +      +      +      + 
    5.8884k -134.869  +      +      +   a  +      +      +      +      +      + 
    6.0256k -134.669  +      +      +   a  +      +      +      +      +      + 
    6.1660k -134.469  +      +      +   a  +      +      +      +      +      + 
    6.3096k -134.269 -+------+------+---a--+------+------+------+------+------+-
    6.4565k -134.069  +      +      +   a  +      +      +      +      +      + 
    6.6069k -133.869  +      +      +    a +      +      +      +      +      + 
    6.7608k -133.669  +      +      +    a +      +      +      +      +      + 
    6.9183k -133.469  +      +      +    a +      +      +      +      +      + 
    7.0795k -133.269  +      +      +    a +      +      +      +      +      + 
    7.2444k -133.069  +      +      +    a +      +      +      +      +      + 
    7.4131k -132.869  +      +      +    a +      +      +      +      +      + 
    7.5858k -132.669  +      +      +    a +      +      +      +      +      + 
    7.7625k -132.469  +      +      +    a +      +      +      +      +      + 
    7.9433k -132.269 -+------+------+----a-+------+------+------+------+------+-
    8.1283k -132.069  +      +      +    a +      +      +      +      +      + 
    8.3176k -131.869  +      +      +    a +      +      +      +      +      + 
    8.5114k -131.669  +      +      +    a +      +      +      +      +      + 
    8.7096k -131.469  +      +      +    a +      +      +      +      +      + 
    8.9125k -131.269  +      +      +    a +      +      +      +      +      + 
    9.1201k -131.069  +      +      +    a +      +      +      +      +      + 
    9.3325k -130.869  +      +      +    a +      +      +      +      +      + 
    9.5499k -130.669  +      +      +    a +      +      +      +      +      + 
    9.7724k -130.469  +      +      +    a +      +      +      +      +      + 
   10.0000k -130.269 -+------+------+-----a+------+------+------+------+------+-
   10.2329k -130.069  +      +      +     a+      +      +      +      +      + 
   10.4713k -129.869  +      +      +     a+      +      +      +      +      + 
   10.7152k -129.669  +      +      +     a+      +      +      +      +      + 
   10.9648k -129.469  +      +      +     a+      +      +      +      +      + 
   11.2202k -129.269  +      +      +     a+      +      +      +      +      + 
   11.4815k -129.069  +      +      +     a+      +      +      +      +      + 
   11.7490k -128.869  +      +      +     a+      +      +      +      +      + 
   12.0226k -128.669  +      +      +     a+      +      +      +      +      + 
   12.3027k -128.469  +      +      +     a+      +      +      +      +      + 
   12.5893k -128.269 -+------+------+-----a+------+------+------+------+------+-
   12.8825k -128.069  +      +      +     a+      +      +      +      +      + 
   13.1826k -127.869  +      +      +     a+      +      +      +      +      + 
   13.4896k -127.669  +      +      +     a+      +      +      +      +      + 
   13.8038k -127.469  +      +      +     a+      +      +      +      +      + 
   14.1254k -127.269  +      +      +     a+      +      +      +      +      + 
   14.4544k -127.069  +      +      +     a+      +      +      +      +      + 
   14.7911k -126.869  +      +      +     a+      +      +      +      +      + 
   15.1356k -126.669  +      +      +      a      +      +      +      +      + 
   15.4882k -126.469  +      +      +      a      +      +      +      +      + 
   15.8489k -126.269 -+------+------+------a------+------+------+------+------+-
   16.2181k -126.069  +      +      +      a      +      +      +      +      + 
   16.5959k -125.869  +      +      +      a      +      +      +      +      + 
   16.9824k -125.669  +      +      +      a      +      +      +      +      + 
   17.3780k -125.469  +      +      +      a      +      +      +      +      + 
   17.7828k -125.269  +      +      +      a      +      +      +      +      + 
   18.1970k -125.069  +      +      +      a      +      +      +      +      + 
   18.6209k -124.869  +      +      +      a      +      +      +      +      + 
   19.0546k -124.669  +      +      +      a      +      +      +      +      + 
   19.4984k -124.469  +      +      +      a      +      +      +      +      + 
   19.9526k -124.269 -+------+------+------a------+------+------+------+------+-
   20.4174k -124.069  +      +      +      a      +      +      +      +      + 
   20.8930k -123.869  +      +      +      a      +      +      +      +      + 
   21.3796k -123.669  +      +      +      a      +      +      +      +      + 
   21.8776k -123.469  +      +      +      a      +      +      +      +      + 
   22.3872k -123.269  +      +      +      a      +      +      +      +      + 
   22.9087k -123.069  +      +      +      +a     +      +      +      +      + 
   23.4423k -122.869  +      +      +      +a     +      +      +      +      + 
   23.9883k -122.669  +      +      +      +a     +      +      +      +      + 
   24.5471k -122.469  +      +      +      +a     +      +      +      +      + 
   25.1189k -122.269 -+------+------+------+a-----+------+------+------+------+-
   25.7040k -122.069  +      +      +      +a     +      +      +      +      + 
   26.3027k -121.869  +      +      +      +a     +      +      +      +      + 
   26.9153k -121.669  +      +      +      +a     +      +      +      +      + 
   27.5423k -121.469  +      +      +      +a     +      +      +      +      + 
   28.1838k -121.269  +      +      +      +a     +      +      +      +      + 
   28.8403k -121.069  +      +      +      +a     +      +      +      +      + 
   29.5121k -120.869  +      +      +      +a     +      +      +      +      + 
   30.1995k -120.669  +      +      +      +a     +      +      +      +      + 
   30.9030k -120.469  +      +      +      +a     +      +      +      +      + 
   31.6228k -120.269 -+------+------+------+a-----+------+------+------+------+-
   32.3594k -120.069  +      +      +      +a     +      +      +      +      + 
   33.1131k -119.869  +      +      +      +a     +      +      +      +      + 
   33.8844k -119.669  +      +      +      +a     +      +      +      +      + 
   34.6737k -119.469  +      +      +      + a    +      +      +      +      + 
   35.4813k -119.269  +      +      +      + a    +      +      +      +      + 
   36.3078k -119.069  +      +      +      + a    +      +      +      +      + 
   37.1535k -118.869  +      +      +      + a    +      +      +      +      + 
   38.0189k -118.669  +      +      +      + a    +      +      +      +      + 
   38.9045k -118.469  +      +      +      + a    +      +      +      +      + 
   39.8107k -118.269 -+------+------+------+-a----+------+------+------+------+-
   40.7380k -118.069  +      +      +      + a    +      +      +      +      + 
   41.6869k -117.869  +      +      +      + a    +      +      +      +      + 
   42.6580k -117.669  +      +      +      + a    +      +      +      +      + 
   43.6516k -117.469  +      +      +      + a    +      +      +      +      + 
   44.6684k -117.269  +      +      +      + a    +      +      +      +      + 
   45.7088k -117.069  +      +      +      + a    +      +      +      +      + 
   46.7735k -116.869  +      +      +      + a    +      +      +      +      + 
   47.8630k -116.669  +      +      +      + a    +      +      +      +      + 
   48.9779k -116.469  +      +      +      + a    +      +      +      +      + 
   50.1187k -116.269 -+------+------+------+-a----+------+------+------+------+-
   51.2861k -116.069  +      +      +      +  a   +      +      +      +      + 
   52.4807k -115.869  +      +      +      +  a   +      +      +      +      + 
   53.7032k -115.669  +      +      +      +  a   +      +      +      +      + 
   54.9541k -115.469  +      +      +      +  a   +      +      +      +      + 
   56.2341k -115.269  +      +      +      +  a   +      +      +      +      + 
   57.5440k -115.069  +      +      +      +  a   +      +      +      +      + 
   58.8844k -114.869  +      +      +      +  a   +      +      +      +      + 
   60.2560k -114.669  +      +      +      +  a   +      +      +      +      + 
   61.6595k -114.469  +      +      +      +  a   +      +      +      +      + 
   63.0957k -114.269 -+------+------+------+--a---+------+------+------+------+-
   64.5654k -114.069  +      +      +      +  a   +      +      +      +      + 
   66.0693k -113.869  +      +      +      +  a   +      +      +      +      + 
   67.6083k -113.669  +      +      +      +  a   +      +      +      +      + 
   69.1831k -113.469  +      +      +      +  a   +      +      +      +      + 
   70.7946k -113.269  +      +      +      +  a   +      +      +      +      + 
   72.4436k -113.069  +      +      +      +  a   +      +      +      +      + 
   74.1310k -112.869  +      +      +      +  a   +      +      +      +      + 
   75.8578k -112.669  +      +      +      +  a   +      +      +      +      + 
   77.6247k -112.469  +      +      +      +   a  +      +      +      +      + 
   79.4328k -112.269 -+------+------+------+---a--+------+------+------+------+-
   81.2831k -112.069  +      +      +      +   a  +      +      +      +      + 
   83.1764k -111.869  +      +      +      +   a  +      +      +      +      + 
   85.1138k -111.669  +      +      +      +   a  +      +      +      +      + 
   87.0964k -111.469  +      +      +      +   a  +      +      +      +      + 
   89.1251k -111.269  +      +      +      +   a  +      +      +      +      + 
   91.2011k -111.069  +      +      +      +   a  +      +      +      +      + 
   93.3254k -110.869  +      +      +      +   a  +      +      +      +      + 
   95.4993k -110.669  +      +      +      +   a  +      +      +      +      + 
   97.7237k -110.469  +      +      +      +   a  +      +      +      +      + 
  100.0000k -110.269 -+------+------+------+---a--+------+------+------+------+-
  102.3293k -110.069  +      +      +      +   a  +      +      +      +      + 
  104.7129k -109.869  +      +      +      +   a  +      +      +      +      + 
  107.1519k -109.669  +      +      +      +   a  +      +      +      +      + 
  109.6478k -109.469  +      +      +      +   a  +      +      +      +      + 
  112.2018k -109.269  +      +      +      +   a  +      +      +      +      + 
  114.8154k -109.069  +      +      +      +   a  +      +      +      +      + 
  117.4898k -108.869  +      +      +      +    a +      +      +      +      + 
  120.2264k -108.669  +      +      +      +    a +      +      +      +      + 
  123.0269k -108.469  +      +      +      +    a +      +      +      +      + 
  125.8925k -108.269 -+------+------+------+----a-+------+------+------+------+-
  128.8250k -108.069  +      +      +      +    a +      +      +      +      + 
  131.8257k -107.869  +      +      +      +    a +      +      +      +      + 
  134.8963k -107.669  +      +      +      +    a +      +      +      +      + 
  138.0384k -107.469  +      +      +      +    a +      +      +      +      + 
  141.2538k -107.269  +      +      +      +    a +      +      +      +      + 
  144.5440k -107.069  +      +      +      +    a +      +      +      +      + 
  147.9108k -106.869  +      +      +      +    a +      +      +      +      + 
  151.3561k -106.669  +      +      +      +    a +      +      +      +      + 
  154.8817k -106.469  +      +      +      +    a +      +      +      +      + 
  158.4893k -106.269 -+------+------+------+----a-+------+------+------+------+-
  162.1810k -106.069  +      +      +      +    a +      +      +      +      + 
  165.9587k -105.869  +      +      +      +    a +      +      +      +      + 
  169.8244k -105.669  +      +      +      +    a +      +      +      +      + 
  173.7801k -105.469  +      +      +      +    a +      +      +      +      + 
  177.8279k -105.269  +      +      +      +     a+      +      +      +      + 
  181.9701k -105.069  +      +      +      +     a+      +      +      +      + 
  186.2087k -104.869  +      +      +      +     a+      +      +      +      + 
  190.5461k -104.669  +      +      +      +     a+      +      +      +      + 
  194.9845k -104.469  +      +      +      +     a+      +      +      +      + 
  199.5262k -104.269 -+------+------+------+-----a+------+------+------+------+-
  204.1738k -104.069  +      +      +      +     a+      +      +      +      + 
  208.9296k -103.869  +      +      +      +     a+      +      +      +      + 
  213.7962k -103.669  +      +      +      +     a+      +      +      +      + 
  218.7762k -103.469  +      +      +      +     a+      +      +      +      + 
  223.8721k -103.269  +      +      +      +     a+      +      +      +      + 
  229.0868k -103.069  +      +      +      +     a+      +      +      +      + 
  234.4229k -102.869  +      +      +      +     a+      +      +      +      + 
  239.8833k -102.669  +      +      +      +     a+      +      +      +      + 
  245.4709k -102.469  +      +      +      +     a+      +      +      +      + 
  251.1886k -102.269 -+------+------+------+-----a+------+------+------+------+-
  257.0396k -102.069  +      +      +      +     a+      +      +      +      + 
  263.0268k -101.869  +      +      +      +     a+      +      +      +      + 
  269.1535k -101.669  +      +      +      +      a      +      +      +      + 
  275.4229k -101.469  +      +      +      +      a      +      +      +      + 
  281.8383k -101.269  +      +      +      +      a      +      +      +      + 
  288.4032k -101.069  +      +      +      +      a      +      +      +      + 
  295.1209k -100.869  +      +      +      +      a      +      +      +      + 
  301.9952k -100.669  +      +      +      +      a      +      +      +      + 
  309.0295k -100.469  +      +      +      +      a      +      +      +      + 
  316.2278k -100.269 -+------+------+------+------a------+------+------+------+-
  323.5937k -100.069  +      +      +      +      a      +      +      +      + 
  331.1311k  -99.869  +      +      +      +      a      +      +      +      + 
  338.8442k  -99.669  +      +      +      +      a      +      +      +      + 
  346.7369k  -99.469  +      +      +      +      a      +      +      +      + 
  354.8134k  -99.269  +      +      +      +      a      +      +      +      + 
  363.0781k  -99.069  +      +      +      +      a      +      +      +      + 
  371.5352k  -98.869  +      +      +      +      a      +      +      +      + 
  380.1894k  -98.669  +      +      +      +      a      +      +      +      + 
  389.0451k  -98.469  +      +      +      +      a      +      +      +      + 
  398.1072k  -98.269 -+------+------+------+------a------+------+------+------+-
  407.3803k  -98.069  +      +      +      +      +a     +      +      +      + 
  416.8694k  -97.869  +      +      +      +      +a     +      +      +      + 
  426.5795k  -97.669  +      +      +      +      +a     +      +      +      + 
  436.5158k  -97.469  +      +      +      +      +a     +      +      +      + 
  446.6836k  -97.269  +      +      +      +      +a     +      +      +      + 
  457.0882k  -97.069  +      +      +      +      +a     +      +      +      + 
  467.7351k  -96.869  +      +      +      +      +a     +      +      +      + 
  478.6301k  -96.669  +      +      +      +      +a     +      +      +      + 
  489.7788k  -96.469  +      +      +      +      +a     +      +      +      + 
  501.1872k  -96.269 -+------+------+------+------+a-----+------+------+------+-
  512.8614k  -96.069  +      +      +      +      +a     +      +      +      + 
  524.8075k  -95.869  +      +      +      +      +a     +      +      +      + 
  537.0318k  -95.669  +      +      +      +      +a     +      +      +      + 
  549.5409k  -95.469  +      +      +      +      +a     +      +      +      + 
  562.3413k  -95.269  +      +      +      +      +a     +      +      +      + 
  575.4399k  -95.069  +      +      +      +      +a     +      +      +      + 
  588.8437k  -94.869  +      +      +      +      +a     +      +      +      + 
  602.5596k  -94.669  +      +      +      +      +a     +      +      +      + 
  616.5950k  -94.469  +      +      +      +      + a    +      +      +      + 
  630.9573k  -94.269 -+------+------+------+------+-a----+------+------+------+-
  645.6542k  -94.069  +      +      +      +      + a    +      +      +      + 
  660.6934k  -93.869  +      +      +      +      + a    +      +      +      + 
  676.0830k  -93.669  +      +      +      +      + a    +      +      +      + 
  691.8310k  -93.469  +      +      +      +      + a    +      +      +      + 
  707.9458k  -93.269  +      +      +      +      + a    +      +      +      + 
  724.4360k  -93.069  +      +      +      +      + a    +      +      +      + 
  741.3102k  -92.869  +      +      +      +      + a    +      +      +      + 
  758.5776k  -92.669  +      +      +      +      + a    +      +      +      + 
  776.2471k  -92.469  +      +      +      +      + a    +      +      +      + 
  794.3282k  -92.269 -+------+------+------+------+-a----+------+------+------+-
  812.8305k  -92.069  +      +      +      +      + a    +      +      +      + 
  831.7638k  -91.869  +      +      +      +      + a    +      +      +      + 
  851.1380k  -91.669  +      +      +      +      + a    +      +      +      + 
  870.9636k  -91.469  +      +      +      +      + a    +      +      +      + 
  891.2509k  -91.269  +      +      +      +      + a    +      +      +      + 
  912.0108k  -91.069  +      +      +      +      +  a   +      +      +      + 
  933.2543k  -90.869  +      +      +      +      +  a   +      +      +      + 
  954.9926k  -90.669  +      +      +      +      +  a   +      +      +      + 
  977.2372k  -90.469  +      +      +      +      +  a   +      +      +      + 
    1.0000x  -90.269 -+------+------+------+------+--a---+------+------+------+-
    1.0233x  -90.069  +      +      +      +      +  a   +      +      +      + 
    1.0471x  -89.869  +      +      +      +      +  a   +      +      +      + 
    1.0715x  -89.669  +      +      +      +      +  a   +      +      +      + 
    1.0965x  -89.469  +      +      +      +      +  a   +      +      +      + 
    1.1220x  -89.269  +      +      +      +      +  a   +      +      +      + 
    1.1482x  -89.069  +      +      +      +      +  a   +      +      +      + 
    1.1749x  -88.869  +      +      +      +      +  a   +      +      +      + 
    1.2023x  -88.669  +      +      +      +      +  a   +      +      +      + 
    1.2303x  -88.469  +      +      +      +      +  a   +      +      +      + 
    1.2589x  -88.269 -+------+------+------+------+--a---+------+------+------+-
    1.2882x  -88.069  +      +      +      +      +  a   +      +      +      + 
    1.3183x  -87.869  +      +      +      +      +  a   +      +      +      + 
    1.3490x  -87.669  +      +      +      +      +  a   +      +      +      + 
    1.3804x  -87.469  +      +      +      +      +   a  +      +      +      + 
    1.4125x  -87.269  +      +      +      +      +   a  +      +      +      + 
    1.4454x  -87.069  +      +      +      +      +   a  +      +      +      + 
    1.4791x  -86.869  +      +      +      +      +   a  +      +      +      + 
    1.5136x  -86.669  +      +      +      +      +   a  +      +      +      + 
    1.5488x  -86.469  +      +      +      +      +   a  +      +      +      + 
    1.5849x  -86.269 -+------+------+------+------+---a--+------+------+------+-
    1.6218x  -86.069  +      +      +      +      +   a  +      +      +      + 
    1.6596x  -85.869  +      +      +      +      +   a  +      +      +      + 
    1.6982x  -85.669  +      +      +      +      +   a  +      +      +      + 
    1.7378x  -85.469  +      +      +      +      +   a  +      +      +      + 
    1.7783x  -85.269  +      +      +      +      +   a  +      +      +      + 
    1.8197x  -85.069  +      +      +      +      +   a  +      +      +      + 
    1.8621x  -84.869  +      +      +      +      +   a  +      +      +      + 
    1.9055x  -84.669  +      +      +      +      +   a  +      +      +      + 
    1.9498x  -84.469  +      +      +      +      +   a  +      +      +      + 
    1.9953x  -84.269 -+------+------+------+------+---a--+------+------+------+-
    2.0417x  -84.069  +      +      +      +      +   a  +      +      +      + 
    2.0893x  -83.869  +      +      +      +      +    a +      +      +      + 
    2.1380x  -83.669  +      +      +      +      +    a +      +      +      + 
    2.1878x  -83.469  +      +      +      +      +    a +      +      +      + 
    2.2387x  -83.269  +      +      +      +      +    a +      +      +      + 
    2.2909x  -83.069  +      +      +      +      +    a +      +      +      + 
    2.3442x  -82.869  +      +      +      +      +    a +      +      +      + 
    2.3988x  -82.669  +      +      +      +      +    a +      +      +      + 
    2.4547x  -82.469  +      +      +      +      +    a +      +      +      + 
    2.5119x  -82.269 -+------+------+------+------+----a-+------+------+------+-
    2.5704x  -82.069  +      +      +      +      +    a +      +      +      + 
    2.6303x  -81.869  +      +      +      +      +    a +      +      +      + 
    2.6915x  -81.669  +      +      +      +      +    a +      +      +      + 
    2.7542x  -81.469  +      +      +      +      +    a +      +      +      + 
    2.8184x  -81.269  +      +      +      +      +    a +      +      +      + 
    2.8840x  -81.069  +      +      +      +      +    a +      +      +      + 
    2.9512x  -80.869  +      +      +      +      +    a +      +      +      + 
    3.0200x  -80.669  +      +      +      +      +    a +      +      +      + 
    3.0903x  -80.470  +      +      +      +      +    a +      +      +      + 
    3.1623x  -80.270 -+------+------+------+------+-----a+------+------+------+-
    3.2359x  -80.070  +      +      +      +      +     a+      +      +      + 
    3.3113x  -79.870  +      +      +      +      +     a+      +      +      + 
    3.3884x  -79.670  +      +      +      +      +     a+      +      +      + 
    3.4674x  -79.470  +      +      +      +      +     a+      +      +      + 
    3.5481x  -79.270  +      +      +      +      +     a+      +      +      + 
    3.6308x  -79.070  +      +      +      +      +     a+      +      +      + 
    3.7154x  -78.870  +      +      +      +      +     a+      +      +      + 
    3.8019x  -78.670  +      +      +      +      +     a+      +      +      + 
    3.8905x  -78.470  +      +      +      +      +     a+      +      +      + 
    3.9811x  -78.270 -+------+------+------+------+-----a+------+------+------+-
    4.0738x  -78.070  +      +      +      +      +     a+      +      +      + 
    4.1687x  -77.870  +      +      +      +      +     a+      +      +      + 
    4.2658x  -77.670  +      +      +      +      +     a+      +      +      + 
    4.3652x  -77.470  +      +      +      +      +     a+      +      +      + 
    4.4668x  -77.270  +      +      +      +      +     a+      +      +      + 
    4.5709x  -77.070  +      +      +      +      +     a+      +      +      + 
    4.6774x  -76.871  +      +      +      +      +     a+      +      +      + 
    4.7863x  -76.671  +      +      +      +      +      a      +      +      + 
    4.8978x  -76.471  +      +      +      +      +      a      +      +      + 
    5.0119x  -76.271 -+------+------+------+------+------a------+------+------+-
    5.1286x  -76.071  +      +      +      +      +      a      +      +      + 
    5.2481x  -75.871  +      +      +      +      +      a      +      +      + 
    5.3703x  -75.671  +      +      +      +      +      a      +      +      + 
    5.4954x  -75.471  +      +      +      +      +      a      +      +      + 
    5.6234x  -75.271  +      +      +      +      +      a      +      +      + 
    5.7544x  -75.071  +      +      +      +      +      a      +      +      + 
    5.8884x  -74.872  +      +      +      +      +      a      +      +      + 
    6.0256x  -74.672  +      +      +      +      +      a      +      +      + 
    6.1660x  -74.472  +      +      +      +      +      a      +      +      + 
    6.3096x  -74.272 -+------+------+------+------+------a------+------+------+-
    6.4565x  -74.072  +      +      +      +      +      a      +      +      + 
    6.6069x  -73.872  +      +      +      +      +      a      +      +      + 
    6.7608x  -73.673  +      +      +      +      +      a      +      +      + 
    6.9183x  -73.473  +      +      +      +      +      a      +      +      + 
    7.0795x  -73.273  +      +      +      +      +      a      +      +      + 
    7.2444x  -73.073  +      +      +      +      +      +a     +      +      + 
    7.4131x  -72.873  +      +      +      +      +      +a     +      +      + 
    7.5858x  -72.673  +      +      +      +      +      +a     +      +      + 
    7.7625x  -72.474  +      +      +      +      +      +a     +      +      + 
    7.9433x  -72.274 -+------+------+------+------+------+a-----+------+------+-
    8.1283x  -72.074  +      +      +      +      +      +a     +      +      + 
    8.3176x  -71.874  +      +      +      +      +      +a     +      +      + 
    8.5114x  -71.675  +      +      +      +      +      +a     +      +      + 
    8.7096x  -71.475  +      +      +      +      +      +a     +      +      + 
    8.9125x  -71.275  +      +      +      +      +      +a     +      +      + 
    9.1201x  -71.076  +      +      +      +      +      +a     +      +      + 
    9.3325x  -70.876  +      +      +      +      +      +a     +      +      + 
    9.5499x  -70.676  +      +      +      +      +      +a     +      +      + 
    9.7724x  -70.477  +      +      +      +      +      +a     +      +      + 
   10.0000x  -70.277 -+------+------+------+------+------+a-----+------+------+-
   10.2329x  -70.077  +      +      +      +      +      +a     +      +      + 
   10.4713x  -69.878  +      +      +      +      +      +a     +      +      + 
   10.7152x  -69.678  +      +      +      +      +      +a     +      +      + 
   10.9648x  -69.479  +      +      +      +      +      + a    +      +      + 
   11.2202x  -69.279  +      +      +      +      +      + a    +      +      + 
   11.4815x  -69.080  +      +      +      +      +      + a    +      +      + 
   11.7490x  -68.880  +      +      +      +      +      + a    +      +      + 
   12.0226x  -68.681  +      +      +      +      +      + a    +      +      + 
   12.3027x  -68.481  +      +      +      +      +      + a    +      +      + 
   12.5893x  -68.282 -+------+------+------+------+------+-a----+------+------+-
   12.8825x  -68.082  +      +      +      +      +      + a    +      +      + 
   13.1826x  -67.883  +      +      +      +      +      + a    +      +      + 
   13.4896x  -67.684  +      +      +      +      +      + a    +      +      + 
   13.8038x  -67.484  +      +      +      +      +      + a    +      +      + 
   14.1254x  -67.285  +      +      +      +      +      + a    +      +      + 
   14.4544x  -67.086  +      +      +      +      +      + a    +      +      + 
   14.7911x  -66.887  +      +      +      +      +      + a    +      +      + 
   15.1356x  -66.687  +      +      +      +      +      + a    +      +      + 
   15.4882x  -66.488  +      +      +      +      +      + a    +      +      + 
   15.8489x  -66.289 -+------+------+------+------+------+-a----+------+------+-
   16.2181x  -66.090  +      +      +      +      +      + a    +      +      + 
   16.5959x  -65.891  +      +      +      +      +      +  a   +      +      + 
   16.9824x  -65.692  +      +      +      +      +      +  a   +      +      + 
   17.3780x  -65.493  +      +      +      +      +      +  a   +      +      + 
   17.7828x  -65.294  +      +      +      +      +      +  a   +      +      + 
   18.1970x  -65.096  +      +      +      +      +      +  a   +      +      + 
   18.6209x  -64.897  +      +      +      +      +      +  a   +      +      + 
   19.0546x  -64.698  +      +      +      +      +      +  a   +      +      + 
   19.4984x  -64.499  +      +      +      +      +      +  a   +      +      + 
   19.9526x  -64.301 -+------+------+------+------+------+--a---+------+------+-
   20.4174x  -64.102  +      +      +      +      +      +  a   +      +      + 
   20.8930x  -63.904  +      +      +      +      +      +  a   +      +      + 
   21.3796x  -63.706  +      +      +      +      +      +  a   +      +      + 
   21.8776x  -63.507  +      +      +      +      +      +  a   +      +      + 
   22.3872x  -63.309  +      +      +      +      +      +  a   +      +      + 
   22.9087x  -63.111  +      +      +      +      +      +  a   +      +      + 
   23.4423x  -62.913  +      +      +      +      +      +  a   +      +      + 
   23.9883x  -62.715  +      +      +      +      +      +  a   +      +      + 
   24.5471x  -62.517  +      +      +      +      +      +  a   +      +      + 
   25.1189x  -62.319 -+------+------+------+------+------+---a--+------+------+-
   25.7040x  -62.121  +      +      +      +      +      +   a  +      +      + 
   26.3027x  -61.924  +      +      +      +      +      +   a  +      +      + 
   26.9153x  -61.726  +      +      +      +      +      +   a  +      +      + 
   27.5423x  -61.529  +      +      +      +      +      +   a  +      +      + 
   28.1838x  -61.332  +      +      +      +      +      +   a  +      +      + 
   28.8403x  -61.134  +      +      +      +      +      +   a  +      +      + 
   29.5121x  -60.937  +      +      +      +      +      +   a  +      +      + 
   30.1995x  -60.740  +      +      +      +      +      +   a  +      +      + 
   30.9030x  -60.544  +      +      +      +      +      +   a  +      +      + 
   31.6228x  -60.347 -+------+------+------+------+------+---a--+------+------+-
   32.3594x  -60.150  +      +      +      +      +      +   a  +      +      + 
   33.1131x  -59.954  +      +      +      +      +      +   a  +      +      + 
   33.8844x  -59.758  +      +      +      +      +      +   a  +      +      + 
   34.6737x  -59.562  +      +      +      +      +      +   a  +      +      + 
   35.4813x  -59.366  +      +      +      +      +      +   a  +      +      + 
   36.3078x  -59.170  +      +      +      +      +      +   a  +      +      + 
   37.1535x  -58.975  +      +      +      +      +      +   a  +      +      + 
   38.0189x  -58.779  +      +      +      +      +      +    a +      +      + 
   38.9045x  -58.584  +      +      +      +      +      +    a +      +      + 
   39.8107x  -58.389 -+------+------+------+------+------+----a-+------+------+-
   40.7380x  -58.194  +      +      +      +      +      +    a +      +      + 
   41.6869x  -58.000  +      +      +      +      +      +    a +      +      + 
   42.6580x  -57.805  +      +      +      +      +      +    a +      +      + 
   43.6516x  -57.611  +      +      +      +      +      +    a +      +      + 
   44.6684x  -57.417  +      +      +      +      +      +    a +      +      + 
   45.7088x  -57.224  +      +      +      +      +      +    a +      +      + 
   46.7735x  -57.030  +      +      +      +      +      +    a +      +      + 
   47.8630x  -56.837  +      +      +      +      +      +    a +      +      + 
   48.9779x  -56.644  +      +      +      +      +      +    a +      +      + 
   50.1187x  -56.452 -+------+------+------+------+------+----a-+------+------+-
   51.2861x  -56.259  +      +      +      +      +      +    a +      +      + 
   52.4807x  -56.067  +      +      +      +      +      +    a +      +      + 
   53.7032x  -55.875  +      +      +      +      +      +    a +      +      + 
   54.9541x  -55.684  +      +      +      +      +      +    a +      +      + 
   56.2341x  -55.492  +      +      +      +      +      +    a +      +      + 
   57.5440x  -55.301  +      +      +      +      +      +     a+      +      + 
   58.8844x  -55.111  +      +      +      +      +      +     a+      +      + 
   60.2560x  -54.921  +      +      +      +      +      +     a+      +      + 
   61.6595x  -54.731  +      +      +      +      +      +     a+      +      + 
   63.0957x  -54.541 -+------+------+------+------+------+-----a+------+------+-
   64.5654x  -54.352  +      +      +      +      +      +     a+      +      + 
   66.0693x  -54.163  +      +      +      +      +      +     a+      +      + 
   67.6083x  -53.974  +      +      +      +      +      +     a+      +      + 
   69.1831x  -53.786  +      +      +      +      +      +     a+      +      + 
   70.7946x  -53.598  +      +      +      +      +      +     a+      +      + 
   72.4436x  -53.411  +      +      +      +      +      +     a+      +      + 
   74.1310x  -53.224  +      +      +      +      +      +     a+      +      + 
   75.8578x  -53.037  +      +      +      +      +      +     a+      +      + 
   77.6247x  -52.851  +      +      +      +      +      +     a+      +      + 
   79.4328x  -52.665 -+------+------+------+------+------+-----a+------+------+-
   81.2831x  -52.480  +      +      +      +      +      +     a+      +      + 
   83.1764x  -52.295  +      +      +      +      +      +     a+      +      + 
   85.1138x  -52.110  +      +      +      +      +      +     a+      +      + 
   87.0964x  -51.926  +      +      +      +      +      +     a+      +      + 
   89.1251x  -51.742  +      +      +      +      +      +      a      +      + 
   91.2011x  -51.559  +      +      +      +      +      +      a      +      + 
   93.3254x  -51.376  +      +      +      +      +      +      a      +      + 
   95.4993x  -51.194  +      +      +      +      +      +      a      +      + 
   97.7237x  -51.012  +      +      +      +      +      +      a      +      + 
  100.0000x  -50.831 -+------+------+------+------+------+------a------+------+-
  102.3293x  -50.650  +      +      +      +      +      +      a      +      + 
  104.7129x  -50.470  +      +      +      +      +      +      a      +      + 
  107.1519x  -50.290  +      +      +      +      +      +      a      +      + 
  109.6478x  -50.111  +      +      +      +      +      +      a      +      + 
  112.2018x  -49.932  +      +      +      +      +      +      a      +      + 
  114.8154x  -49.754  +      +      +      +      +      +      a      +      + 
  117.4898x  -49.576  +      +      +      +      +      +      a      +      + 
  120.2264x  -49.399  +      +      +      +      +      +      a      +      + 
  123.0269x  -49.223  +      +      +      +      +      +      a      +      + 
  125.8925x  -49.047 -+------+------+------+------+------+------a------+------+-
  128.8250x  -48.872  +      +      +      +      +      +      a      +      + 
  131.8257x  -48.698  +      +      +      +      +      +      a      +      + 
  134.8963x  -48.524  +      +      +      +      +      +      a      +      + 
  138.0384x  -48.350  +      +      +      +      +      +      a      +      + 
  141.2538x  -48.178  +      +      +      +      +      +      +a     +      + 
  144.5440x  -48.006  +      +      +      +      +      +      +a     +      + 
  147.9108x  -47.835  +      +      +      +      +      +      +a     +      + 
  151.3561x  -47.664  +      +      +      +      +      +      +a     +      + 
  154.8817x  -47.495  +      +      +      +      +      +      +a     +      + 
  158.4893x  -47.326 -+------+------+------+------+------+------+a-----+------+-
  162.1810x  -47.157  +      +      +      +      +      +      +a     +      + 
  165.9587x  -46.990  +      +      +      +      +      +      +a     +      + 
  169.8244x  -46.823  +      +      +      +      +      +      +a     +      + 
  173.7801x  -46.658  +      +      +      +      +      +      +a     +      + 
  177.8279x  -46.493  +      +      +      +      +      +      +a     +      + 
  181.9701x  -46.329  +      +      +      +      +      +      +a     +      + 
  186.2087x  -46.166  +      +      +      +      +      +      +a     +      + 
  190.5461x  -46.003  +      +      +      +      +      +      +a     +      + 
  194.9845x  -45.842  +      +      +      +      +      +      +a     +      + 
  199.5262x  -45.682 -+------+------+------+------+------+------+a-----+------+-
  204.1738x  -45.522  +      +      +      +      +      +      +a     +      + 
  208.9296x  -45.364  +      +      +      +      +      +      +a     +      + 
  213.7962x  -45.207  +      +      +      +      +      +      +a     +      + 
  218.7762x  -45.050  +      +      +      +      +      +      +a     +      + 
  223.8721x  -44.895  +      +      +      +      +      +      +a     +      + 
  229.0868x  -44.740  +      +      +      +      +      +      +a     +      + 
  234.4229x  -44.587  +      +      +      +      +      +      + a    +      + 
  239.8833x  -44.435  +      +      +      +      +      +      + a    +      + 
  245.4709x  -44.284  +      +      +      +      +      +      + a    +      + 
  251.1886x  -44.134 -+------+------+------+------+------+------+-a----+------+-
  257.0396x  -43.985  +      +      +      +      +      +      + a    +      + 
  263.0268x  -43.837  +      +      +      +      +      +      + a    +      + 
  269.1535x  -43.690  +      +      +      +      +      +      + a    +      + 
  275.4229x  -43.544  +      +      +      +      +      +      + a    +      + 
  281.8383x  -43.399  +      +      +      +      +      +      + a    +      + 
  288.4032x  -43.255  +      +      +      +      +      +      + a    +      + 
  295.1209x  -43.113  +      +      +      +      +      +      + a    +      + 
  301.9952x  -42.971  +      +      +      +      +      +      + a    +      + 
  309.0295x  -42.830  +      +      +      +      +      +      + a    +      + 
  316.2278x  -42.691 -+------+------+------+------+------+------+-a----+------+-
  323.5937x  -42.552  +      +      +      +      +      +      + a    +      + 
  331.1311x  -42.415  +      +      +      +      +      +      + a    +      + 
  338.8442x  -42.278  +      +      +      +      +      +      + a    +      + 
  346.7369x  -42.142  +      +      +      +      +      +      + a    +      + 
  354.8134x  -42.007  +      +      +      +      +      +      + a    +      + 
  363.0781x  -41.873  +      +      +      +      +      +      + a    +      + 
  371.5352x  -41.740  +      +      +      +      +      +      + a    +      + 
  380.1894x  -41.608  +      +      +      +      +      +      + a    +      + 
  389.0451x  -41.476  +      +      +      +      +      +      + a    +      + 
  398.1072x  -41.345 -+------+------+------+------+------+------+-a----+------+-
  407.3803x  -41.215  +      +      +      +      +      +      + a    +      + 
  416.8694x  -41.085  +      +      +      +      +      +      + a    +      + 
  426.5795x  -40.956  +      +      +      +      +      +      +  a   +      + 
  436.5158x  -40.827  +      +      +      +      +      +      +  a   +      + 
  446.6836x  -40.699  +      +      +      +      +      +      +  a   +      + 
  457.0882x  -40.571  +      +      +      +      +      +      +  a   +      + 
  467.7351x  -40.444  +      +      +      +      +      +      +  a   +      + 
  478.6301x  -40.317  +      +      +      +      +      +      +  a   +      + 
  489.7788x  -40.190  +      +      +      +      +      +      +  a   +      + 
[...]
  cgs      171.2772f  171.2772f  476.5907f  476.5907f    2.0916p  522.2227f
  cgd      164.7996f  164.7996f   69.3254f   69.3254f  186.5592f   47.0532f



 ******  
 nmos

  ******  ac analysis tnom=  25.000 temp=  25.000 *****

          ***** job concluded
1****** HSPICE -- F-2011.09-SP2 32-BIT (Feb 27 2012) linux ******               
 ******  
 nmos

  ******  ac analysis tnom=  25.000 temp=  25.000 *****
 ***** operating point status is all       simulation time is     0.     

   *** parameter vic =    0.000E+00 ***

    node    =voltage      node    =voltage      node    =voltage

 +0:b       = 420.7216m 0:g34     = 431.1056m 0:g56     =-477.9546m
 +0:vcc     = 900.0000m 0:vdd     =-900.0000m 0:vin1    =   4.0000 
 +0:vin2    =   4.0000  0:vout    = 431.1056m


 **** voltage sources

 subckt                                              
 element  0:vcc1     0:vdd1     0:vin1x    0:vin2x   
  volts    900.0000m -900.0000m    4.0000     4.0000 
  current -869.9345u  869.9345u    0.         0.     
  power    782.9411u  782.9411u    0.         0.     

     total voltage source power dissipation=    1.5659m       watts



 **** resistors

 subckt             
 element  0:r1      
  r value    8.5600k
  v drop     1.3780 
  current  160.9760u
  power    221.8176u



 **** mosfets


 subckt                                                                    
 element  0:m1       0:m2       0:m3       0:m4       0:m5       0:m6      
 model    0:n_18     0:n_18     0:p_18     0:p_18     0:n_18     0:n_18    
 region       Linear     Linear   Saturati   Saturati   Saturati   Saturati
  id       354.4793u  354.4793u -354.4793u -354.4793u  708.9585u  160.9760u
  ibs        0.         0.         0.         0.         0.         0.     
  ibd        0.         0.         0.         0.         0.         0.     
  vgs        3.5793     3.5793  -468.8944m -468.8944m  422.0454m  422.0454m
  vds       10.3840m   10.3840m -468.8944m -468.8944m    1.3207   422.0454m
  vbs     -420.7216m -420.7216m -900.0000m -900.0000m  900.0000m  900.0000m
  vth      583.0242m  583.0242m -246.7674m -246.7674m  224.1748m  230.7807m
  vdsat      2.0510     2.0510  -153.9433m -153.9433m  116.5018m  112.5946m
  vod        2.9963     2.9963  -222.1270m -222.1270m  197.8707m  191.2648m
  beta      14.5511m   14.5511m   21.0252m   21.0252m   69.8948m   17.5143m
  gam eff  593.6053m  593.6053m  545.6505m  545.6505m  595.7658m  595.7612m
  gm         0.         0.         3.1757m    3.1757m    8.3208m    1.9555m
  gds       34.0472m   34.0472m   47.4545u   47.4545u   70.9387u   19.7987u
  gmb       39.6175u   39.6175u  463.9127u  463.9127u  822.3794u  193.9524u
  cdtot    216.3987f  216.3987f  217.6437f  217.6437f  440.3806f  128.1977f
  cgtot    337.1741f  337.1741f  534.3330f  534.3330f    2.2695p  567.4123f
  cstot    143.5922f  143.5922f  420.5578f  420.5578f    1.3695p  342.4238f
  cbtot    178.1988f  178.1988f  361.6878f  361.6878f  790.9020f  215.8308f
  cgs      171.2772f  171.2772f  476.5907f  476.5907f    2.0916p  522.2227f
  cgd      164.7996f  164.7996f   69.3254f   69.3254f  186.5592f   47.0532f



 ******  
 nmos

  ******  ac analysis tnom=  25.000 temp=  25.000 *****

          ***** job concluded
1****** HSPICE -- F-2011.09-SP2 32-BIT (Feb 27 2012) linux ******               
 ******  
 nmos

  ******  ac analysis tnom=  25.000 temp=  25.000 *****
 ***** operating point status is all       simulation time is     0.     

   *** parameter vic =    1.000E-01 ***

    node    =voltage      node    =voltage      node    =voltage

 +0:b       = 420.7216m 0:g34     = 431.1056m 0:g56     =-477.9546m
 +0:vcc     = 900.0000m 0:vdd     =-900.0000m 0:vin1    =   4.0000 
 +0:vin2    =   4.0000  0:vout    = 431.1056m


 **** voltage sources

 subckt                                              
 element  0:vcc1     0:vdd1     0:vin1x    0:vin2x   
  volts    900.0000m -900.0000m    4.0000     4.0000 
  current -869.9345u  869.9345u    0.         0.     
  power    782.9411u  782.9411u    0.         0.     

     total voltage source power dissipation=    1.5659m       watts



 **** resistors

 subckt             
 element  0:r1      
  r value    8.5600k
  v drop     1.3780 
  current  160.9760u
  power    221.8176u



 **** mosfets


 subckt                                                                    
 element  0:m1       0:m2       0:m3       0:m4       0:m5       0:m6      
 model    0:n_18     0:n_18     0:p_18     0:p_18     0:n_18     0:n_18    
 region       Linear     Linear   Saturati   Saturati   Saturati   Saturati
  id       354.4793u  354.4793u -354.4793u -354.4793u  708.9585u  160.9760u
  ibs        0.         0.         0.         0.         0.         0.     
  ibd        0.         0.         0.         0.         0.         0.     
  vgs        3.5793     3.5793  -468.8944m -468.8944m  422.0454m  422.0454m
  vds       10.3840m   10.3840m -468.8944m -468.8944m    1.3207   422.0454m
  vbs     -420.7216m -420.7216m -900.0000m -900.0000m  900.0000m  900.0000m
  vth      583.0242m  583.0242m -246.7674m -246.7674m  224.1748m  230.7807m
  vdsat      2.0510     2.0510  -153.9433m -153.9433m  116.5018m  112.5946m
  vod        2.9963     2.9963  -222.1270m -222.1270m  197.8707m  191.2648m
  beta      14.5511m   14.5511m   21.0252m   21.0252m   69.8948m   17.5143m
  gam eff  593.6053m  593.6053m  545.6505m  545.6505m  595.7658m  595.7612m
  gm         0.         0.         3.1757m    3.1757m    8.3208m    1.9555m
  gds       34.0472m   34.0472m   47.4545u   47.4545u   70.9387u   19.7987u
  gmb       39.6175u   39.6175u  463.9127u  463.9127u  822.3794u  193.9524u
  cdtot    216.3987f  216.3987f  217.6437f  217.6437f  440.3806f  128.1977f
  cgtot    337.1741f  337.1741f  534.3330f  534.3330f    2.2695p  567.4123f
  cstot    143.5922f  143.5922f  420.5578f  420.5578f    1.3695p  342.4238f
  cbtot    178.1988f  178.1988f  361.6878f  361.6878f  790.9020f  215.8308f
  cgs      171.2772f  171.2772f  476.5907f  476.5907f    2.0916p  522.2227f
  cgd      164.7996f  164.7996f   69.3254f   69.3254f  186.5592f   47.0532f



 ******  
 nmos

  ******  ac analysis tnom=  25.000 temp=  25.000 *****

          ***** job concluded
1****** HSPICE -- F-2011.09-SP2 32-BIT (Feb 27 2012) linux ******               
 ******  
 nmos

  ******  ac analysis tnom=  25.000 temp=  25.000 *****
 ***** operating point status is all       simulation time is     0.     

   *** parameter vic =    2.000E-01 ***

    node    =voltage      node    =voltage      node    =voltage

 +0:b       = 420.7216m 0:g34     = 431.1056m 0:g56     =-477.9546m
 +0:vcc     = 900.0000m 0:vdd     =-900.0000m 0:vin1    =   4.0000 
 +0:vin2    =   4.0000  0:vout    = 431.1056m


 **** voltage sources

 subckt                                              
 element  0:vcc1     0:vdd1     0:vin1x    0:vin2x   
  volts    900.0000m -900.0000m    4.0000     4.0000 
  current -869.9345u  869.9345u    0.         0.     
  power    782.9411u  782.9411u    0.         0.     

     total voltage source power dissipation=    1.5659m       watts



 **** resistors

 subckt             
 element  0:r1      
  r value    8.5600k
  v drop     1.3780 
  current  160.9760u
  power    221.8176u



 **** mosfets


 subckt                                                                    
 element  0:m1       0:m2       0:m3       0:m4       0:m5       0:m6      
 model    0:n_18     0:n_18     0:p_18     0:p_18     0:n_18     0:n_18    
 region       Linear     Linear   Saturati   Saturati   Saturati   Saturati
  id       354.4793u  354.4793u -354.4793u -354.4793u  708.9585u  160.9760u
  ibs        0.         0.         0.         0.         0.         0.     
  ibd        0.         0.         0.         0.         0.         0.     
  vgs        3.5793     3.5793  -468.8944m -468.8944m  422.0454m  422.0454m
  vds       10.3840m   10.3840m -468.8944m -468.8944m    1.3207   422.0454m
  vbs     -420.7216m -420.7216m -900.0000m -900.0000m  900.0000m  900.0000m
  vth      583.0242m  583.0242m -246.7674m -246.7674m  224.1748m  230.7807m
  vdsat      2.0510     2.0510  -153.9433m -153.9433m  116.5018m  112.5946m
  vod        2.9963     2.9963  -222.1270m -222.1270m  197.8707m  191.2648m
  beta      14.5511m   14.5511m   21.0252m   21.0252m   69.8948m   17.5143m
  gam eff  593.6053m  593.6053m  545.6505m  545.6505m  595.7658m  595.7612m
  gm         0.         0.         3.1757m    3.1757m    8.3208m    1.9555m
  gds       34.0472m   34.0472m   47.4545u   47.4545u   70.9387u   19.7987u
  gmb       39.6175u   39.6175u  463.9127u  463.9127u  822.3794u  193.9524u
  cdtot    216.3987f  216.3987f  217.6437f  217.6437f  440.3806f  128.1977f
  cgtot    337.1741f  337.1741f  534.3330f  534.3330f    2.2695p  567.4123f
  cstot    143.5922f  143.5922f  420.5578f  420.5578f    1.3695p  342.4238f
  cbtot    178.1988f  178.1988f  361.6878f  361.6878f  790.9020f  215.8308f
  cgs      171.2772f  171.2772f  476.5907f  476.5907f    2.0916p  522.2227f
  cgd      164.7996f  164.7996f   69.3254f   69.3254f  186.5592f   47.0532f



 ******  
 nmos

  ******  ac analysis tnom=  25.000 temp=  25.000 *****

          ***** job concluded
1****** HSPICE -- F-2011.09-SP2 32-BIT (Feb 27 2012) linux ******               
 ******  
 nmos

  ******  ac analysis tnom=  25.000 temp=  25.000 *****
 ***** operating point status is all       simulation time is     0.     

   *** parameter vic =    3.000E-01 ***

    node    =voltage      node    =voltage      node    =voltage

 +0:b       = 420.7216m 0:g34     = 431.1056m 0:g56     =-477.9546m
 +0:vcc     = 900.0000m 0:vdd     =-900.0000m 0:vin1    =   4.0000 
 +0:vin2    =   4.0000  0:vout    = 431.1056m


 **** voltage sources

 subckt                                              
 element  0:vcc1     0:vdd1     0:vin1x    0:vin2x   
  volts    900.0000m -900.0000m    4.0000     4.0000 
  current -869.9345u  869.9345u    0.         0.     
  power    782.9411u  782.9411u    0.         0.     

     total voltage source power dissipation=    1.5659m       watts



 **** resistors

 subckt             
 element  0:r1      
  r value    8.5600k
  v drop     1.3780 
  current  160.9760u
  power    221.8176u



 **** mosfets


 subckt                                                                    
 element  0:m1       0:m2       0:m3       0:m4       0:m5       0:m6      
 model    0:n_18     0:n_18     0:p_18     0:p_18     0:n_18     0:n_18    
 region       Linear     Linear   Saturati   Saturati   Saturati   Saturati
  id       354.4793u  354.4793u -354.4793u -354.4793u  708.9585u  160.9760u
  ibs        0.         0.         0.         0.         0.         0.     
  ibd        0.         0.         0.         0.         0.         0.     
  vgs        3.5793     3.5793  -468.8944m -468.8944m  422.0454m  422.0454m
  vds       10.3840m   10.3840m -468.8944m -468.8944m    1.3207   422.0454m
  vbs     -420.7216m -420.7216m -900.0000m -900.0000m  900.0000m  900.0000m
  vth      583.0242m  583.0242m -246.7674m -246.7674m  224.1748m  230.7807m
  vdsat      2.0510     2.0510  -153.9433m -153.9433m  116.5018m  112.5946m
  vod        2.9963     2.9963  -222.1270m -222.1270m  197.8707m  191.2648m
  beta      14.5511m   14.5511m   21.0252m   21.0252m   69.8948m   17.5143m
  gam eff  593.6053m  593.6053m  545.6505m  545.6505m  595.7658m  595.7612m
  gm         0.         0.         3.1757m    3.1757m    8.3208m    1.9555m
  gds       34.0472m   34.0472m   47.4545u   47.4545u   70.9387u   19.7987u
  gmb       39.6175u   39.6175u  463.9127u  463.9127u  822.3794u  193.9524u
  cdtot    216.3987f  216.3987f  217.6437f  217.6437f  440.3806f  128.1977f
  cgtot    337.1741f  337.1741f  534.3330f  534.3330f    2.2695p  567.4123f
  cstot    143.5922f  143.5922f  420.5578f  420.5578f    1.3695p  342.4238f
  cbtot    178.1988f  178.1988f  361.6878f  361.6878f  790.9020f  215.8308f
  cgs      171.2772f  171.2772f  476.5907f  476.5907f    2.0916p  522.2227f
  cgd      164.7996f  164.7996f   69.3254f   69.3254f  186.5592f   47.0532f



 ******  
 nmos

  ******  ac analysis tnom=  25.000 temp=  25.000 *****

          ***** job concluded
1****** HSPICE -- F-2011.09-SP2 32-BIT (Feb 27 2012) linux ******               
 ******  
 nmos

  ******  ac analysis tnom=  25.000 temp=  25.000 *****
 ***** operating point status is all       simulation time is     0.     

   *** parameter vic =    4.000E-01 ***

    node    =voltage      node    =voltage      node    =voltage

 +0:b       = 420.7216m 0:g34     = 431.1056m 0:g56     =-477.9546m
 +0:vcc     = 900.0000m 0:vdd     =-900.0000m 0:vin1    =   4.0000 
 +0:vin2    =   4.0000  0:vout    = 431.1056m


 **** voltage sources

 subckt                                              
 element  0:vcc1     0:vdd1     0:vin1x    0:vin2x   
  volts    900.0000m -900.0000m    4.0000     4.0000 
  current -869.9345u  869.9345u    0.         0.     
  power    782.9411u  782.9411u    0.         0.     

     total voltage source power dissipation=    1.5659m       watts



 **** resistors

 subckt             
 element  0:r1      
  r value    8.5600k
  v drop     1.3780 
  current  160.9760u
  power    221.8176u



 **** mosfets


 subckt                                                                    
 element  0:m1       0:m2       0:m3       0:m4       0:m5       0:m6      
 model    0:n_18     0:n_18     0:p_18     0:p_18     0:n_18     0:n_18    
 region       Linear     Linear   Saturati   Saturati   Saturati   Saturati
  id       354.4793u  354.4793u -354.4793u -354.4793u  708.9585u  160.9760u
  ibs        0.         0.         0.         0.         0.         0.     
  ibd        0.         0.         0.         0.         0.         0.     
  vgs        3.5793     3.5793  -468.8944m -468.8944m  422.0454m  422.0454m
  vds       10.3840m   10.3840m -468.8944m -468.8944m    1.3207   422.0454m
  vbs     -420.7216m -420.7216m -900.0000m -900.0000m  900.0000m  900.0000m
  vth      583.0242m  583.0242m -246.7674m -246.7674m  224.1748m  230.7807m
  vdsat      2.0510     2.0510  -153.9433m -153.9433m  116.5018m  112.5946m
  vod        2.9963     2.9963  -222.1270m -222.1270m  197.8707m  191.2648m
  beta      14.5511m   14.5511m   21.0252m   21.0252m   69.8948m   17.5143m
  gam eff  593.6053m  593.6053m  545.6505m  545.6505m  595.7658m  595.7612m
  gm         0.         0.         3.1757m    3.1757m    8.3208m    1.9555m
  gds       34.0472m   34.0472m   47.4545u   47.4545u   70.9387u   19.7987u
  gmb       39.6175u   39.6175u  463.9127u  463.9127u  822.3794u  193.9524u
  cdtot    216.3987f  216.3987f  217.6437f  217.6437f  440.3806f  128.1977f
  cgtot    337.1741f  337.1741f  534.3330f  534.3330f    2.2695p  567.4123f
  cstot    143.5922f  143.5922f  420.5578f  420.5578f    1.3695p  342.4238f
  cbtot    178.1988f  178.1988f  361.6878f  361.6878f  790.9020f  215.8308f
  cgs      171.2772f  171.2772f  476.5907f  476.5907f    2.0916p  522.2227f
  cgd      164.7996f  164.7996f   69.3254f   69.3254f  186.5592f   47.0532f



 ******  
 nmos

  ******  ac analysis tnom=  25.000 temp=  25.000 *****

          ***** job concluded
1****** HSPICE -- F-2011.09-SP2 32-BIT (Feb 27 2012) linux ******               
 ******  
 nmos

  ******  ac analysis tnom=  25.000 temp=  25.000 *****
 ***** operating point status is all       simulation time is     0.     

   *** parameter vic =    5.000E-01 ***

    node    =voltage      node    =voltage      node    =voltage

 +0:b       = 420.7216m 0:g34     = 431.1056m 0:g56     =-477.9546m
 +0:vcc     = 900.0000m 0:vdd     =-900.0000m 0:vin1    =   4.0000 
 +0:vin2    =   4.0000  0:vout    = 431.1056m


 **** voltage sources

 subckt                                              
 element  0:vcc1     0:vdd1     0:vin1x    0:vin2x   
  volts    900.0000m -900.0000m    4.0000     4.0000 
  current -869.9345u  869.9345u    0.         0.     
  power    782.9411u  782.9411u    0.         0.     

     total voltage source power dissipation=    1.5659m       watts



 **** resistors

 subckt             
 element  0:r1      
  r value    8.5600k
  v drop     1.3780 
  current  160.9760u
  power    221.8176u



 **** mosfets


 subckt                                                                    
 element  0:m1       0:m2       0:m3       0:m4       0:m5       0:m6      
 model    0:n_18     0:n_18     0:p_18     0:p_18     0:n_18     0:n_18    
 region       Linear     Linear   Saturati   Saturati   Saturati   Saturati
  id       354.4793u  354.4793u -354.4793u -354.4793u  708.9585u  160.9760u
  ibs        0.         0.         0.         0.         0.         0.     
  ibd        0.         0.         0.         0.         0.         0.     
  vgs        3.5793     3.5793  -468.8944m -468.8944m  422.0454m  422.0454m
  vds       10.3840m   10.3840m -468.8944m -468.8944m    1.3207   422.0454m
  vbs     -420.7216m -420.7216m -900.0000m -900.0000m  900.0000m  900.0000m
  vth      583.0242m  583.0242m -246.7674m -246.7674m  224.1748m  230.7807m
  vdsat      2.0510     2.0510  -153.9433m -153.9433m  116.5018m  112.5946m
  vod        2.9963     2.9963  -222.1270m -222.1270m  197.8707m  191.2648m
  beta      14.5511m   14.5511m   21.0252m   21.0252m   69.8948m   17.5143m
  gam eff  593.6053m  593.6053m  545.6505m  545.6505m  595.7658m  595.7612m
  gm         0.         0.         3.1757m    3.1757m    8.3208m    1.9555m
  gds       34.0472m   34.0472m   47.4545u   47.4545u   70.9387u   19.7987u
  gmb       39.6175u   39.6175u  463.9127u  463.9127u  822.3794u  193.9524u
  cdtot    216.3987f  216.3987f  217.6437f  217.6437f  440.3806f  128.1977f
  cgtot    337.1741f  337.1741f  534.3330f  534.3330f    2.2695p  567.4123f
  cstot    143.5922f  143.5922f  420.5578f  420.5578f    1.3695p  342.4238f
  cbtot    178.1988f  178.1988f  361.6878f  361.6878f  790.9020f  215.8308f
  cgs      171.2772f  171.2772f  476.5907f  476.5907f    2.0916p  522.2227f
  cgd      164.7996f  164.7996f   69.3254f   69.3254f  186.5592f   47.0532f



 ******  
 nmos

  ******  ac analysis tnom=  25.000 temp=  25.000 *****

          ***** job concluded
1****** HSPICE -- F-2011.09-SP2 32-BIT (Feb 27 2012) linux ******               
 ******  
 nmos

  ******  job statistics summary tnom=  25.000 temp=  25.000 *****
  
  
 ******  Machine Information  ******
 CPU:
 model name	: Intel(R) Xeon(R) CPU E3-1240 V2 @ 3.40GHz
 cpu MHz	: 1600.000
  
 OS:
 Linux version 2.6.32-358.23.2.el6.x86_64 (mockbuild@c6b9.bsys.dev.centos.org) (
 gcc version 4.4.7 20120313 (Red Hat 4.4.7-3) (GCC) ) #1 SMP Wed Oct 16 18:37:12
  UTC 2013


  ******  HSPICE Threads Information  ******

  Command Line Threads Count :     1
  Available CPU Count        :     8
  Actual Threads Count       :     1


  ******  Circuit Statistics  ******
  # nodes       =      10 # elements   =      13
  # resistors   =       1 # capacitors =       1 # inductors   =       0
  # mutual_inds =       0 # vccs       =       0 # vcvs        =       0
  # cccs        =       0 # ccvs       =       0 # volt_srcs   =       5
  # curr_srcs   =       0 # diodes     =       0 # bjts        =       0
  # jfets       =       0 # mosfets    =       6 # U elements  =       0
  # T elements  =       0 # W elements =       0 # B elements  =       0
  # S elements  =       0 # P elements =       0 # va device   =       0
  # vector_srcs =       0


  ******  Runtime Statistics (seconds)  ******

  analysis           time    # points   tot. iter  conv.iter
  op point           0.00           1          43
  ac analysis        0.05         601       10512
  readin             0.00
  errchk             0.00
  setup              0.00
  output             0.00


           peak memory used         95.68 megabytes
           total cpu time            0.05 seconds
           total elapsed time        0.45 seconds
           job started at     15:01:34 12/03/2013
           job ended   at     15:01:34 12/03/2013


 lic: Release hspice token(s) 
