Using: /usr/local/apps/synopsys/current_hspice/hspice/linux/hspice nmos_diff_rload.sp
 ****** HSPICE -- F-2011.09-SP2 32-BIT (Feb 27 2012) linux ******               
  Copyright (C) 2011 Synopsys, Inc. All Rights Reserved.                        
  Unpublished-rights reserved under US copyright laws.
  This program is protected by law and is subject to the
  terms and conditions of the license agreement from Synopsys.
  Use of this program is your acceptance to be bound by the
  license agreement. HSPICE is the trademark of Synopsys, Inc.
  Input File: nmos_diff_rload.sp                                                
  Command line options: nmos_diff_rload.sp
 lic:  
 lic: FLEXlm: v10.8 
 lic: USER:   goynese              HOSTNAME: kec1130-14.engr.oregonstate.edu 
 lic: HOSTID: 24be0511c109         PID:      10248 
 lic: Using FLEXlm license file: 
 lic: 7188@license.eecs.oregonstate.edu 
 lic: Checkout 1 hspice 
 lic: License/Maintenance for hspice will expire on 11-aug-2014/2013.03 
 lic: 6(in_use)/50(total) FLOATING license(s) on SERVER license.eecs.oregonstate
 lic:   
 Init: read install configuration file: /usr/local/apps/synopsys/current_hspice/hspice/meta.cfg
1****** HSPICE -- F-2011.09-SP2 32-BIT (Feb 27 2012) linux ******               
 ******  
 nmos

  ******  mos   model parameters tnom=  25.000 temp=  25.000 *****
 ***************************************************************************
 ***        model parameters  model name:   0:n_18     model type:nmos   ***
 ***************************************************************************

   *** general parameters ***
    deriv=   0.           

   ***  level 49  model parameters  ***

      hspver=    2006.03               level=         49         
     version=        3.1            paramchk=          0         
      apwarn=          1                lite=          0         
      vgslim=          0             binUnit=          1         
      capMod=          2               xpart=        0.5         
      mobMod=          1              nqsMod=          0         
      stiMod=          0                 elm=          5         
    sfvtflag=          0                 tox=    4.1e-09 meter   
          xj=      1e-07 meter       binflag=          0         
        lmin=          0 meter          lmax=          0 meter   
        wmin=          0 meter          wmax=          0 meter   
        lref=          0 meter          wref=          0 meter   
        lint=7.65986e-09 meter          wint=          0 meter   
       lmult=          1               wmult=          1         
          ll=          0                 lln=          1         
          lw=          0                 lwn=          1         
         lwl=          0                  wl=          0         
         wln=          1                  ww=          0         
         wwn=          1                 wwl=          0         
         dwg=-1.17694e-08 m/V             dwb=1.96583e-08 m/V^1/2 
          xl=          0                  xw=     -1e-08         
          a0=          2                 ags=   0.428182 V^-1    
          b0=-4.43566e-09 meter            b1=     -1e-07 meter   
        keta=-0.00873409 V^-1           voff= -0.0909514 V       
       ngate=          0 cm^-3           vbx=          0 V       
         vbm=         -3 V                xt=   1.55e-07 meter   
        vth0=   0.376033 V               nch= 2.3549e+17 cm^-3   
        nsub=      6e+16 cm^-3           nlx=1.83658e-07 meter   
      gamma1=          0 V^-1/2       gamma2=          0 V^-1/2  
          k1=   0.598252 V^1/2            k2= 0.00204285         
          k3=      0.001                 k3b=    5.47338 V^-1    
          w0=      1e-07 meter          dvt0=    1.38283         
        dvt1=   0.374633                dvt2=  0.0524724 V^-1    
       dvt0w=          0 meter^-1      dvt1w=          0 meter^-1
       dvt2w=          0 V^-1           dsub= 0.00880778         
        eta0=  0.0029649                etab=9.02839e-05 V^-1    
          u0=    265.099 cm^2/V/sec         ua=-1.34288e-09 m/V     
          ub=2.21876e-18 (m/V)^2          uc=5.30227e-11 V^-1    
        vsat=      99674 m/sec            a1=0.000117788 v^-1    
          a2=          1               delta=       0.01 V       
        rdsw=        150 ohm-um         prwg=        0.5 V^-1    
        prwb=       -0.2 V^-1/2           wr=          1         
        pclm=   0.739383             pdiblc1=   0.240506         
     pdiblc2= 0.00238467             pdiblcb=       -0.1 V^-1    
      pscbe1=2.25061e+09 V/m          pscbe2=5.50405e-09 V/m     
       drout=   0.810147                pvag= 0.00820885         
     nfactor=    2.47421                cdsc=    0.00024 f/m^2   
       cdscb=          0 f/V/m^2       cdscd=          0 f/V/m^2 
         cit=          0 f/m^2        alpha0=          0 m/V     
       beta0=         30 V               dlc=7.65986e-09 meter   
         dwc=          0 meter           clc=      1e-07 meter   
         cle=        0.6                cgso=   7.68e-10 f/m     
        cgdo=   7.68e-10 f/m            cgbo=      1e-12 f/m     
        cgsl=          0 f/m            cgdl=          0 f/m     
      ckappa=        0.6                  cf=          0 f/m     
        tnom=     300.15 K               kt1=      -0.11 V       
        kt1l=          0                 kt2=      0.022         
         ute=       -1.5                 ua1=   4.31e-09 m/V     
         ub1=  -7.61e-18 (m/V)^2         uc1=   -5.6e-11 m/V^2   
          at=      33000 m/s             prt=          0         
         using Berkeley noise model       noiMod=          1         
        noia=      1e+20                noib=      50000         
        noic=   -1.4e-12                  em=    4.1e+07         
          ef=          1                  af=          1         
          kf=          0              gdsnoi=-1.23457e-29         
         using Hspice diodes            using ACM 
         acm=         0                 hdif=         0 meter    
        ldif=         0 meter             js=         0 amp/m^2  
         jsw=         0 amp/m            xti=         0          
           n=         1                   cj=0.00096236 f/m^2    
          mj=  0.380501                   pb=       0.8 V        
        cjsw=2.37186e-10 f/m             mjsw=  0.107791          
         php=       0.8 V               pbsw (not used)           
      cjgate=2.37186e-10 f/m            cjswg (not used)           
       mjswg (not used)                 pbswg (not used)           
       lketa=-0.00944713               wketa= 0.00500085         
       pketa=-0.00308008               pvth0=-0.000919017         
         pk2=0.000320258               peta0=9.33065e-05         
         pu0=    32.7094                 pua=1.35883e-10         
       pvsat=    2004.06               prdsw=         -5         
 ***************************************************************************
 ***        model parameters  model name:   0:p_18     model type:pmos   ***
 ***************************************************************************

   *** general parameters ***
    deriv=   0.           

   ***  level 49  model parameters  ***

      hspver=    2006.03               level=         49         
     version=        3.1            paramchk=          0         
      apwarn=          1                lite=          0         
      vgslim=          0             binUnit=          1         
      capMod=          2               xpart=        0.5         
      mobMod=          1              nqsMod=          0         
      stiMod=          0                 elm=          5         
    sfvtflag=          0                 tox=    4.1e-09 meter   
          xj=      1e-07 meter       binflag=          0         
        lmin=          0 meter          lmax=          0 meter   
        wmin=          0 meter          wmax=          0 meter   
        lref=          0 meter          wref=          0 meter   
        lint=2.40594e-08 meter          wint=          0 meter   
       lmult=          1               wmult=          1         
          ll=          0                 lln=          1         
          lw=          0                 lwn=          1         
         lwl=          0                  wl=          0         
         wln=          1                  ww=          0         
         wwn=          1                 wwl=          0         
         dwg=-4.41769e-08 m/V             dwb=6.97017e-09 m/V^1/2 
          xl=          0                  xw=     -1e-08         
          a0=    1.84138                 ags=   0.400689 V^-1    
          b0=7.65708e-07 meter            b1=2.52826e-06 meter   
        keta=  0.0145743 V^-1           voff= -0.0984894 V       
       ngate=          0 cm^-3           vbx=          0 V       
         vbm=         -3 V                xt=   1.55e-07 meter   
        vth0=  -0.404077 V               nch= 4.1589e+17 cm^-3   
        nsub=      6e+16 cm^-3           nlx=1.06879e-07 meter   
      gamma1=          0 V^-1/2       gamma2=          0 V^-1/2  
          k1=   0.583367 V^1/2            k2=  0.0301169         
          k3=          0                 k3b=    16.2021 V^-1    
          w0=      1e-06 meter          dvt0=   0.556918         
        dvt1=   0.246075                dvt2=        0.1 V^-1    
       dvt0w=          0 meter^-1      dvt1w=          0 meter^-1
       dvt2w=          0 V^-1           dsub=    1.02253         
        eta0=   0.152158                etab=  -0.099095 V^-1    
          u0=    116.046 cm^2/V/sec         ua=1.55704e-09 m/V     
          ub=      1e-21 (m/V)^2          uc=     -1e-10 V^-1    
        vsat=     199463 m/sec            a1=   0.373167 v^-1    
          a2=        0.3               delta=       0.01 V       
        rdsw=    287.511 ohm-um         prwg=        0.5 V^-1    
        prwb=  -0.135487 V^-1/2           wr=          1         
        pclm=     2.1661             pdiblc1=3.20891e-05         
     pdiblc2=  0.0164807             pdiblcb=     -0.001 V^-1    
      pscbe1=9.01974e+09 V/m          pscbe2=2.60511e-09 V/m     
       drout=          0                pvag=         15         
     nfactor=     1.8964                cdsc=    0.00024 f/m^2   
       cdscb=          0 f/V/m^2       cdscd=          0 f/V/m^2 
         cit=          0 f/m^2        alpha0=          0 m/V     
       beta0=         30 V               dlc=2.40594e-08 meter   
         dwc=          0 meter           clc=      1e-07 meter   
         cle=        0.6                cgso=   5.75e-10 f/m     
        cgdo=   5.75e-10 f/m            cgbo=      1e-12 f/m     
        cgsl=          0 f/m            cgdl=          0 f/m     
      ckappa=        0.6                  cf=          0 f/m     
        tnom=     300.15 K               kt1=      -0.11 V       
        kt1l=          0                 kt2=      0.022         
         ute=       -1.5                 ua1=   4.31e-09 m/V     
         ub1=  -7.61e-18 (m/V)^2         uc1=   -5.6e-11 m/V^2   
          at=      33000 m/s             prt=          0         
         using Berkeley noise model       noiMod=          1         
        noia=    9.9e+18                noib=       2400         
        noic=    1.4e-12                  em=    4.1e+07         
          ef=          1                  af=          1         
          kf=          0              gdsnoi=-1.23457e-29         
         using Hspice diodes            using ACM 
         acm=         0                 hdif=         0 meter    
        ldif=         0 meter             js=         0 amp/m^2  
         jsw=         0 amp/m            xti=         0          
           n=         1                   cj=0.00116394 f/m^2    
          mj=  0.419416                   pb=  0.865987 V        
        cjsw=1.65613e-10 f/m             mjsw=  0.368302          
         php=  0.865987 V               pbsw (not used)           
      cjgate=1.65613e-10 f/m            cjswg (not used)           
       mjswg (not used)                 pbswg (not used)           
       lketa=-0.00294233               wketa=  0.0266507         
       pketa=-0.00367958               pvth0= 0.00185699         
         pk2= 0.00155429               peta0=0.000100316         
         pu0=    -1.1074                 pua=-4.96912e-11         
         pub=      1e-21               pvsat=        -50         
       prdsw=   -1.14585         
 

  
      
 **info** set option symb=1 internally to help for convergence.
 *****************************************************************
 ******  option summary
 ******
 runlvl  = 3         bypass  = 2         
1****** HSPICE -- F-2011.09-SP2 32-BIT (Feb 27 2012) linux ******               
 ******  
 nmos

  ******  operating point information tnom=  25.000 temp=  25.000 *****
 ***** operating point status is all       simulation time is     0.     
    node    =voltage      node    =voltage      node    =voltage

 +0:b       =-709.1635m 0:g34     = 445.5059m 0:g56     =-477.9546m
 +0:vcc     = 900.0000m 0:vdd     =-900.0000m 0:vin1    =-235.0000m
 +0:vin2    =-235.0000m 0:vout    = 445.5059m


 **** voltage sources

 subckt                                              
 element  0:vcc1     0:vdd1     0:vin1x    0:vin2x   
  volts    900.0000m -900.0000m -235.0000m -235.0000m
  current -780.2095u  780.2095u    0.         0.     
  power    702.1886u  702.1886u    0.         0.     

     total voltage source power dissipation=    1.4044m       watts



 **** resistors

 subckt             
 element  0:r1      
  r value    8.5600k
  v drop     1.3780 
  current  160.9760u
  power    221.8176u



 **** mosfets


 subckt                                                                    
 element  0:m1       0:m2       0:m3       0:m4       0:m5       0:m6      
 model    0:n_18     0:n_18     0:p_18     0:p_18     0:n_18     0:n_18    
 region     Saturati   Saturati   Saturati   Saturati   Saturati   Saturati
  id       309.6167u  309.6167u -309.6167u -309.6167u  619.2335u  160.9760u
  ibs        0.         0.         0.         0.         0.         0.     
  ibd        0.         0.         0.         0.         0.         0.     
  vgs      474.1635m  474.1635m -454.4941m -454.4941m  422.0454m  422.0454m
  vds        1.1547     1.1547  -454.4941m -454.4941m  190.8365m  422.0454m
  vbs      709.1635m  709.1635m -900.0000m -900.0000m  900.0000m  900.0000m
  vth      294.3444m  294.3444m -246.7676m -246.7676m  232.2481m  230.7807m
  vdsat    114.3876m  114.3876m -144.6249m -144.6249m  111.7297m  112.5946m
  vod      179.8191m  179.8191m -207.7265m -207.7265m  189.7973m  191.2648m
  beta      33.6232m   33.6232m   21.1176m   21.1176m   69.9878m   17.5143m
  gam eff  595.5575m  595.5575m  545.6505m  545.6505m  595.7658m  595.7612m
  gm         3.7856m    3.7856m    2.9633m    2.9633m    7.5049m    1.9555m
  gds       37.6955u   37.6955u   42.7812u   42.7812u  214.3042u   19.7987u
  gmb      449.9718u  449.9718u  431.9028u  431.9028u  747.7468u  193.9524u
  cdtot    102.0668f  102.0668f  218.4678f  218.4678f  559.0424f  128.1977f
  cgtot    304.2391f  304.2391f  533.9290f  533.9290f    2.2862p  567.4123f
  cstot    217.8867f  217.8867f  420.1913f  420.1913f    1.3641p  342.4238f
  cbtot    160.4392f  160.4392f  362.6777f  362.6777f  884.9101f  215.8308f
  cgs      259.5831f  259.5831f  475.9389f  475.9389f    2.0847p  522.2227f
  cgd       44.3964f   44.3964f   69.3243f   69.3243f  210.8537f   47.0532f



 ***************************************************
   ******   pole/zero analysis  
  
  
    input =  0:vin1x          output = v(vout)
  
       poles (rad/sec)                 poles ( hertz)
 real            imag            real            imag            
 -57.8882x       0.              -9.21319x       0.              
 -715.425x       0.              -113.863x       0.              
 -2.90297g       0.              -462.022x       0.              
 -10.2969g       0.              -1.63880g       0.              
  
       zeros (rad/sec)                 zeros ( hertz)
 real            imag            real            imag            
 -707.515x       0.              -112.604x       0.              
 -4.63450g       0.              -737.604x       0.              
 32.7423g        35.4373g        5.21110g        5.64002g        
 32.7423g        -35.4373g       5.21110g        -5.64002g       
  
  ***** constant factor = 75.7106u
 ******  
 nmos

  ******  ac analysis tnom=  25.000 temp=  25.000 *****
x

        freq    volt db    
                   vout    
    1.00000k     33.3859   
    1.02329k     33.3859   
    1.04713k     33.3859   
    1.07152k     33.3859   
    1.09648k     33.3859   
    1.12202k     33.3859   
    1.14815k     33.3859   
    1.17490k     33.3859   
    1.20226k     33.3859   
    1.23027k     33.3859   
    1.25893k     33.3859   
    1.28825k     33.3859   
    1.31826k     33.3859   
    1.34896k     33.3859   
    1.38038k     33.3859   
    1.41254k     33.3859   
    1.44544k     33.3859   
    1.47911k     33.3859   
    1.51356k     33.3859   
    1.54882k     33.3859   
    1.58489k     33.3859   
    1.62181k     33.3859   
    1.65959k     33.3859   
    1.69824k     33.3859   
    1.73780k     33.3859   
    1.77828k     33.3859   
    1.81970k     33.3859   
    1.86209k     33.3859   
    1.90546k     33.3859   
    1.94984k     33.3859   
    1.99526k     33.3859   
    2.04174k     33.3859   
    2.08930k     33.3859   
    2.13796k     33.3859   
    2.18776k     33.3859   
    2.23872k     33.3859   
    2.29087k     33.3859   
    2.34423k     33.3859   
    2.39883k     33.3859   
    2.45471k     33.3859   
    2.51189k     33.3859   
    2.57040k     33.3859   
    2.63027k     33.3859   
    2.69153k     33.3859   
    2.75423k     33.3859   
    2.81838k     33.3859   
    2.88403k     33.3859   
    2.95121k     33.3859   
    3.01995k     33.3859   
    3.09030k     33.3859   
    3.16228k     33.3859   
    3.23594k     33.3859   
    3.31131k     33.3859   
    3.38844k     33.3859   
    3.46737k     33.3859   
    3.54813k     33.3859   
    3.63078k     33.3859   
    3.71535k     33.3859   
    3.80189k     33.3859   
    3.89045k     33.3859   
    3.98107k     33.3859   
    4.07380k     33.3859   
    4.16869k     33.3859   
    4.26580k     33.3859   
    4.36516k     33.3859   
    4.46684k     33.3859   
    4.57088k     33.3859   
    4.67735k     33.3859   
    4.78630k     33.3859   
    4.89779k     33.3859   
    5.01187k     33.3859   
    5.12861k     33.3859   
    5.24807k     33.3859   
    5.37032k     33.3859   
    5.49541k     33.3859   
    5.62341k     33.3859   
    5.75440k     33.3859   
    5.88844k     33.3859   
    6.02560k     33.3859   
    6.16595k     33.3859   
    6.30957k     33.3859   
    6.45654k     33.3859   
    6.60693k     33.3859   
    6.76083k     33.3859   
    6.91831k     33.3859   
    7.07946k     33.3859   
    7.24436k     33.3859   
    7.41310k     33.3859   
    7.58578k     33.3859   
    7.76247k     33.3859   
    7.94328k     33.3859   
    8.12831k     33.3859   
    8.31764k     33.3859   
    8.51138k     33.3859   
    8.70964k     33.3859   
    8.91251k     33.3859   
    9.12011k     33.3859   
    9.33254k     33.3859   
    9.54993k     33.3859   
    9.77237k     33.3859   
   10.00000k     33.3859   
   10.23293k     33.3859   
   10.47129k     33.3859   
   10.71519k     33.3859   
   10.96478k     33.3859   
   11.22018k     33.3859   
   11.48154k     33.3859   
   11.74898k     33.3859   
   12.02264k     33.3859   
   12.30269k     33.3859   
   12.58925k     33.3859   
   12.88250k     33.3859   
   13.18257k     33.3859   
   13.48963k     33.3859   
   13.80384k     33.3859   
   14.12538k     33.3859   
   14.45440k     33.3859   
   14.79108k     33.3859   
   15.13561k     33.3859   
   15.48817k     33.3859   
   15.84893k     33.3859   
   16.21810k     33.3859   
   16.59587k     33.3859   
   16.98244k     33.3859   
   17.37801k     33.3859   
   17.78279k     33.3859   
   18.19701k     33.3859   
   18.62087k     33.3859   
   19.05461k     33.3859   
   19.49845k     33.3859   
   19.95262k     33.3859   
   20.41738k     33.3859   
   20.89296k     33.3859   
   21.37962k     33.3859   
   21.87762k     33.3859   
   22.38721k     33.3859   
   22.90868k     33.3859   
   23.44229k     33.3859   
   23.98833k     33.3859   
   24.54709k     33.3859   
   25.11886k     33.3859   
   25.70396k     33.3859   
   26.30268k     33.3858   
   26.91535k     33.3858   
   27.54229k     33.3858   
   28.18383k     33.3858   
   28.84032k     33.3858   
   29.51209k     33.3858   
   30.19952k     33.3858   
   30.90295k     33.3858   
   31.62278k     33.3858   
   32.35937k     33.3858   
   33.11311k     33.3858   
   33.88442k     33.3858   
   34.67369k     33.3858   
   35.48134k     33.3858   
   36.30781k     33.3858   
   37.15352k     33.3858   
   38.01894k     33.3858   
   38.90451k     33.3858   
   39.81072k     33.3858   
   40.73803k     33.3858   
   41.68694k     33.3858   
   42.65795k     33.3858   
   43.65158k     33.3858   
   44.66836k     33.3858   
   45.70882k     33.3858   
   46.77351k     33.3858   
   47.86301k     33.3858   
   48.97788k     33.3858   
   50.11872k     33.3858   
   51.28614k     33.3858   
   52.48075k     33.3857   
   53.70318k     33.3857   
   54.95409k     33.3857   
   56.23413k     33.3857   
   57.54399k     33.3857   
   58.88437k     33.3857   
   60.25596k     33.3857   
   61.65950k     33.3857   
   63.09573k     33.3857   
   64.56542k     33.3857   
   66.06934k     33.3857   
   67.60830k     33.3857   
   69.18310k     33.3856   
   70.79458k     33.3856   
   72.44360k     33.3856   
   74.13102k     33.3856   
   75.85776k     33.3856   
   77.62471k     33.3856   
   79.43282k     33.3856   
   81.28305k     33.3855   
   83.17638k     33.3855   
   85.11380k     33.3855   
   87.09636k     33.3855   
   89.12509k     33.3855   
   91.20108k     33.3855   
   93.32543k     33.3854   
   95.49926k     33.3854   
   97.72372k     33.3854   
  100.00000k     33.3854   
  102.32930k     33.3853   
  104.71285k     33.3853   
  107.15193k     33.3853   
  109.64782k     33.3853   
  112.20185k     33.3852   
  114.81536k     33.3852   
  117.48976k     33.3852   
  120.22644k     33.3851   
  123.02688k     33.3851   
  125.89254k     33.3851   
  128.82496k     33.3850   
  131.82567k     33.3850   
  134.89629k     33.3850   
  138.03843k     33.3849   
  141.25375k     33.3849   
  144.54398k     33.3848   
  147.91084k     33.3848   
  151.35612k     33.3847   
  154.88166k     33.3847   
  158.48932k     33.3846   
  162.18101k     33.3845   
  165.95869k     33.3845   
  169.82437k     33.3844   
  173.78008k     33.3843   
  177.82794k     33.3843   
  181.97009k     33.3842   
  186.20871k     33.3841   
  190.54607k     33.3840   
  194.98446k     33.3839   
  199.52623k     33.3838   
  204.17379k     33.3838   
  208.92961k     33.3837   
  213.79621k     33.3835   
  218.77616k     33.3834   
  223.87211k     33.3833   
  229.08677k     33.3832   
  234.42288k     33.3831   
  239.88329k     33.3829   
  245.47089k     33.3828   
  251.18864k     33.3827   
  257.03958k     33.3825   
  263.02680k     33.3823   
  269.15348k     33.3822   
  275.42287k     33.3820   
  281.83829k     33.3818   
  288.40315k     33.3816   
  295.12092k     33.3814   
  301.99517k     33.3812   
  309.02954k     33.3810   
  316.22777k     33.3808   
  323.59366k     33.3805   
  331.13112k     33.3803   
  338.84416k     33.3800   
  346.73685k     33.3797   
  354.81339k     33.3794   
  363.07805k     33.3791   
  371.53523k     33.3788   
  380.18940k     33.3785   
  389.04514k     33.3781   
  398.10717k     33.3778   
  407.38028k     33.3774   
  416.86938k     33.3770   
  426.57952k     33.3766   
  436.51583k     33.3761   
  446.68359k     33.3757   
  457.08819k     33.3752   
  467.73514k     33.3747   
  478.63009k     33.3742   
  489.77882k     33.3736   
  501.18723k     33.3730   
  512.86138k     33.3724   
  524.80746k     33.3718   
  537.03180k     33.3711   
  549.54087k     33.3705   
  562.34133k     33.3697   
  575.43994k     33.3690   
  588.84366k     33.3682   
  602.55959k     33.3673   
  616.59500k     33.3665   
  630.95734k     33.3656   
  645.65423k     33.3646   
  660.69345k     33.3636   
  676.08298k     33.3626   
  691.83097k     33.3615   
  707.94578k     33.3603   
  724.43596k     33.3591   
  741.31024k     33.3578   
  758.57758k     33.3565   
  776.24712k     33.3552   
  794.32823k     33.3537   
  812.83052k     33.3522   
  831.76377k     33.3506   
  851.13804k     33.3490   
  870.96359k     33.3472   
  891.25094k     33.3454   
  912.01084k     33.3435   
  933.25430k     33.3415   
  954.99259k     33.3395   
  977.23722k     33.3373   
    1.00000x     33.3350   
    1.02329x     33.3326   
    1.04713x     33.3301   
    1.07152x     33.3275   
    1.09648x     33.3248   
    1.12202x     33.3219   
    1.14815x     33.3189   
    1.17490x     33.3158   
    1.20226x     33.3125   
    1.23027x     33.3091   
    1.25893x     33.3055   
    1.28825x     33.3018   
    1.31826x     33.2978   
    1.34896x     33.2937   
    1.38038x     33.2894   
    1.41254x     33.2849   
    1.44544x     33.2802   
    1.47911x     33.2753   
    1.51356x     33.2702   
    1.54882x     33.2648   
    1.58489x     33.2592   
    1.62181x     33.2533   
    1.65959x     33.2472   
    1.69824x     33.2407   
    1.73780x     33.2340   
    1.77828x     33.2270   
    1.81970x     33.2196   
    1.86209x     33.2119   
    1.90546x     33.2039   
    1.94984x     33.1955   
    1.99526x     33.1868   
    2.04174x     33.1776   
    2.08930x     33.1680   
    2.13796x     33.1580   
    2.18776x     33.1476   
    2.23872x     33.1367   
    2.29087x     33.1253   
    2.34423x     33.1134   
    2.39883x     33.1009   
    2.45471x     33.0879   
    2.51189x     33.0744   
    2.57040x     33.0602   
    2.63027x     33.0455   
    2.69153x     33.0301   
    2.75423x     33.0140   
    2.81838x     32.9972   
    2.88403x     32.9798   
    2.95121x     32.9615   
    3.01995x     32.9425   
    3.09030x     32.9227   
    3.16228x     32.9020   
    3.23594x     32.8805   
    3.31131x     32.8581   
    3.38844x     32.8347   
    3.46737x     32.8104   
    3.54813x     32.7851   
    3.63078x     32.7587   
    3.71535x     32.7313   
    3.80189x     32.7027   
    3.89045x     32.6730   
    3.98107x     32.6422   
    4.07380x     32.6101   
    4.16869x     32.5767   
    4.26580x     32.5420   
    4.36516x     32.5060   
    4.46684x     32.4687   
    4.57088x     32.4299   
    4.67735x     32.3896   
    4.78630x     32.3479   
    4.89779x     32.3046   
    5.01187x     32.2597   
    5.12861x     32.2132   
    5.24807x     32.1650   
    5.37032x     32.1151   
    5.49541x     32.0635   
    5.62341x     32.0101   
    5.75440x     31.9549   
    5.88844x     31.8978   
    6.02560x     31.8388   
    6.16595x     31.7779   
    6.30957x     31.7150   
    6.45654x     31.6501   
    6.60693x     31.5832   
    6.76083x     31.5142   
    6.91831x     31.4431   
    7.07946x     31.3699   
    7.24436x     31.2945   
    7.41310x     31.2169   
    7.58578x     31.1372   
    7.76247x     31.0552   
    7.94328x     30.9710   
    8.12831x     30.8846   
    8.31764x     30.7959   
    8.51138x     30.7048   
    8.70964x     30.6116   
    8.91251x     30.5160   
    9.12011x     30.4181   
    9.33254x     30.3179   
    9.54993x     30.2154   
    9.77237x     30.1105   
   10.00000x     30.0034   
   10.23293x     29.8940   
   10.47129x     29.7824   
   10.71519x     29.6684   
   10.96478x     29.5522   
   11.22018x     29.4338   
   11.48154x     29.3131   
   11.74898x     29.1902   
   12.02264x     29.0652   
   12.30269x     28.9380   
   12.58925x     28.8087   
   12.88250x     28.6773   
   13.18257x     28.5438   
   13.48963x     28.4083   
   13.80384x     28.2708   
   14.12538x     28.1313   
   14.45440x     27.9899   
   14.79108x     27.8465   
   15.13561x     27.7014   
   15.48817x     27.5543   
   15.84893x     27.4055   
   16.21810x     27.2550   
   16.59587x     27.1027   
   16.98244x     26.9488   
   17.37801x     26.7933   
   17.78279x     26.6361   
   18.19701x     26.4774   
   18.62087x     26.3172   
   19.05461x     26.1556   
   19.49845x     25.9925   
   19.95262x     25.8280   
   20.41738x     25.6622   
   20.89296x     25.4950   
   21.37962x     25.3266   
   21.87762x     25.1570   
   22.38721x     24.9862   
   22.90868x     24.8142   
   23.44229x     24.6411   
   23.98833x     24.4668   
   24.54709x     24.2916   
   25.11886x     24.1153   
   25.70396x     23.9381   
   26.30268x     23.7599   
   26.91535x     23.5807   
   27.54229x     23.4007   
   28.18383x     23.2198   
   28.84032x     23.0381   
   29.51209x     22.8556   
   30.19952x     22.6723   
   30.90295x     22.4882   
   31.62278x     22.3035   
   32.35937x     22.1180   
   33.11311x     21.9319   
   33.88442x     21.7451   
   34.67369x     21.5576   
   35.48134x     21.3696   
   36.30781x     21.1810   
   37.15352x     20.9918   
   38.01894x     20.8021   
   38.90451x     20.6118   
   39.81072x     20.4210   
   40.73803x     20.2297   
   41.68694x     20.0379   
   42.65795x     19.8457   
   43.65158x     19.6530   
   44.66836x     19.4598   
   45.70882x     19.2662   
   46.77351x     19.0723   
   47.86301x     18.8779   
   48.97788x     18.6831   
   50.11872x     18.4879   
   51.28614x     18.2923   
   52.48075x     18.0964   
   53.70318x     17.9001   
   54.95409x     17.7035   
   56.23413x     17.5065   
   57.54399x     17.3092   
   58.88437x     17.1115   
   60.25596x     16.9135   
   61.65950x     16.7152   
   63.09573x     16.5165   
   64.56542x     16.3175   
   66.06934x     16.1182   
   67.60830x     15.9186   
   69.18310x     15.7187   
   70.79458x     15.5185   
   72.44360x     15.3179   
   74.13102x     15.1170   
   75.85776x     14.9158   
   77.62471x     14.7143   
   79.43282x     14.5125   
   81.28305x     14.3103   
   83.17638x     14.1078   
   85.11380x     13.9050   
   87.09636x     13.7018   
   89.12509x     13.4983   
   91.20108x     13.2944   
   93.32543x     13.0902   
   95.49926x     12.8856   
   97.72372x     12.6806   
  100.00000x     12.4753   
  102.32930x     12.2696   
  104.71285x     12.0635   
  107.15193x     11.8569   
  109.64782x     11.6500   
  112.20185x     11.4426   
  114.81536x     11.2348   
  117.48976x     11.0265   
  120.22644x     10.8178   
  123.02688x     10.6085   
  125.89254x     10.3988   
  128.82496x     10.1886   
  131.82567x      9.9778   
  134.89629x      9.7665   
  138.03843x      9.5546   
  141.25375x      9.3422   
  144.54398x      9.1292   
  147.91084x      8.9155   
  151.35612x      8.7012   
  154.88166x      8.4863   
  158.48932x      8.2707   
  162.18101x      8.0543   
  165.95869x      7.8373   
  169.82437x      7.6195   
  173.78008x      7.4010   
  177.82794x      7.1817   
  181.97009x      6.9616   
  186.20871x      6.7406   
  190.54607x      6.5188   
  194.98446x      6.2962   
  199.52623x      6.0726   
  204.17379x      5.8481   
  208.92961x      5.6226   
  213.79621x      5.3962   
  218.77616x      5.1688   
  223.87211x      4.9403   
  229.08677x      4.7108   
  234.42288x      4.4803   
  239.88329x      4.2486   
  245.47089x      4.0158   
  251.18864x      3.7819   
  257.03958x      3.5469   
  263.02680x      3.3107   
  269.15348x      3.0732   
  275.42287x      2.8346   
  281.83829x      2.5947   
  288.40315x      2.3536   
  295.12092x      2.1113   
  301.99517x      1.8677   
  309.02954x      1.6228   
  316.22777x      1.3766   
  323.59366x      1.1291   
  331.13112x    880.3296m  
  338.84416x    630.2587m  
  346.73685x    378.8913m  
  354.81339x    126.2309m  
  363.07805x   -127.7165m  
  371.53523x   -382.9434m  
  380.18940x   -639.4375m  
  389.04514x   -897.1849m  
  398.10717x     -1.1562   
  407.38028x     -1.4164   
  416.86938x     -1.6778   
  426.57952x     -1.9403   
  436.51583x     -2.2040   
  446.68359x     -2.4688   
  457.08819x     -2.7347   
  467.73514x     -3.0016   
  478.63009x     -3.2694   
  489.77882x     -3.5383   
  501.18723x     -3.8080   
  512.86138x     -4.0785   
  524.80746x     -4.3498   
  537.03180x     -4.6219   
  549.54087x     -4.8946   
  562.34133x     -5.1680   
  575.43994x     -5.4419   
  588.84366x     -5.7162   
  602.55959x     -5.9910   
  616.59500x     -6.2661   
  630.95734x     -6.5414   
  645.65423x     -6.8169   
  660.69345x     -7.0926   
  676.08298x     -7.3683   
  691.83097x     -7.6439   
  707.94578x     -7.9194   
  724.43596x     -8.1947   
  741.31024x     -8.4697   
  758.57758x     -8.7444   
  776.24712x     -9.0186   
  794.32823x     -9.2923   
  812.83052x     -9.5654   
  831.76377x     -9.8379   
  851.13804x    -10.1095   
  870.96359x    -10.3804   
  891.25094x    -10.6503   
  912.01084x    -10.9193   
  933.25430x    -11.1872   
  954.99259x    -11.4540   
  977.23722x    -11.7196   
    1.00000g    -11.9839   
y

a


      freq       vdb(vout)
 (a       )     -20.0000        0.           20.0000       40.0000      60.0000 
                      +             +             +             +             + 
    1.0000k   33.386 -+------+------+------+------+------+-a----+------+------+-
    1.0233k   33.386  +      +      +      +      +      + a    +      +      + 
    1.0471k   33.386  +      +      +      +      +      + a    +      +      + 
    1.0715k   33.386  +      +      +      +      +      + a    +      +      + 
    1.0965k   33.386  +      +      +      +      +      + a    +      +      + 
    1.1220k   33.386  +      +      +      +      +      + a    +      +      + 
    1.1482k   33.386  +      +      +      +      +      + a    +      +      + 
    1.1749k   33.386  +      +      +      +      +      + a    +      +      + 
    1.2023k   33.386  +      +      +      +      +      + a    +      +      + 
    1.2303k   33.386  +      +      +      +      +      + a    +      +      + 
    1.2589k   33.386 -+------+------+------+------+------+-a----+------+------+-
    1.2882k   33.386  +      +      +      +      +      + a    +      +      + 
    1.3183k   33.386  +      +      +      +      +      + a    +      +      + 
    1.3490k   33.386  +      +      +      +      +      + a    +      +      + 
    1.3804k   33.386  +      +      +      +      +      + a    +      +      + 
    1.4125k   33.386  +      +      +      +      +      + a    +      +      + 
    1.4454k   33.386  +      +      +      +      +      + a    +      +      + 
    1.4791k   33.386  +      +      +      +      +      + a    +      +      + 
    1.5136k   33.386  +      +      +      +      +      + a    +      +      + 
    1.5488k   33.386  +      +      +      +      +      + a    +      +      + 
    1.5849k   33.386 -+------+------+------+------+------+-a----+------+------+-
    1.6218k   33.386  +      +      +      +      +      + a    +      +      + 
    1.6596k   33.386  +      +      +      +      +      + a    +      +      + 
    1.6982k   33.386  +      +      +      +      +      + a    +      +      + 
    1.7378k   33.386  +      +      +      +      +      + a    +      +      + 
    1.7783k   33.386  +      +      +      +      +      + a    +      +      + 
    1.8197k   33.386  +      +      +      +      +      + a    +      +      + 
    1.8621k   33.386  +      +      +      +      +      + a    +      +      + 
    1.9055k   33.386  +      +      +      +      +      + a    +      +      + 
    1.9498k   33.386  +      +      +      +      +      + a    +      +      + 
    1.9953k   33.386 -+------+------+------+------+------+-a----+------+------+-
    2.0417k   33.386  +      +      +      +      +      + a    +      +      + 
    2.0893k   33.386  +      +      +      +      +      + a    +      +      + 
    2.1380k   33.386  +      +      +      +      +      + a    +      +      + 
    2.1878k   33.386  +      +      +      +      +      + a    +      +      + 
    2.2387k   33.386  +      +      +      +      +      + a    +      +      + 
    2.2909k   33.386  +      +      +      +      +      + a    +      +      + 
    2.3442k   33.386  +      +      +      +      +      + a    +      +      + 
    2.3988k   33.386  +      +      +      +      +      + a    +      +      + 
    2.4547k   33.386  +      +      +      +      +      + a    +      +      + 
    2.5119k   33.386 -+------+------+------+------+------+-a----+------+------+-
    2.5704k   33.386  +      +      +      +      +      + a    +      +      + 
    2.6303k   33.386  +      +      +      +      +      + a    +      +      + 
    2.6915k   33.386  +      +      +      +      +      + a    +      +      + 
    2.7542k   33.386  +      +      +      +      +      + a    +      +      + 
    2.8184k   33.386  +      +      +      +      +      + a    +      +      + 
    2.8840k   33.386  +      +      +      +      +      + a    +      +      + 
    2.9512k   33.386  +      +      +      +      +      + a    +      +      + 
    3.0200k   33.386  +      +      +      +      +      + a    +      +      + 
    3.0903k   33.386  +      +      +      +      +      + a    +      +      + 
    3.1623k   33.386 -+------+------+------+------+------+-a----+------+------+-
    3.2359k   33.386  +      +      +      +      +      + a    +      +      + 
    3.3113k   33.386  +      +      +      +      +      + a    +      +      + 
    3.3884k   33.386  +      +      +      +      +      + a    +      +      + 
    3.4674k   33.386  +      +      +      +      +      + a    +      +      + 
    3.5481k   33.386  +      +      +      +      +      + a    +      +      + 
    3.6308k   33.386  +      +      +      +      +      + a    +      +      + 
    3.7154k   33.386  +      +      +      +      +      + a    +      +      + 
    3.8019k   33.386  +      +      +      +      +      + a    +      +      + 
    3.8905k   33.386  +      +      +      +      +      + a    +      +      + 
    3.9811k   33.386 -+------+------+------+------+------+-a----+------+------+-
    4.0738k   33.386  +      +      +      +      +      + a    +      +      + 
    4.1687k   33.386  +      +      +      +      +      + a    +      +      + 
    4.2658k   33.386  +      +      +      +      +      + a    +      +      + 
    4.3652k   33.386  +      +      +      +      +      + a    +      +      + 
    4.4668k   33.386  +      +      +      +      +      + a    +      +      + 
    4.5709k   33.386  +      +      +      +      +      + a    +      +      + 
    4.6774k   33.386  +      +      +      +      +      + a    +      +      + 
    4.7863k   33.386  +      +      +      +      +      + a    +      +      + 
    4.8978k   33.386  +      +      +      +      +      + a    +      +      + 
    5.0119k   33.386 -+------+------+------+------+------+-a----+------+------+-
    5.1286k   33.386  +      +      +      +      +      + a    +      +      + 
    5.2481k   33.386  +      +      +      +      +      + a    +      +      + 
    5.3703k   33.386  +      +      +      +      +      + a    +      +      + 
    5.4954k   33.386  +      +      +      +      +      + a    +      +      + 
    5.6234k   33.386  +      +      +      +      +      + a    +      +      + 
    5.7544k   33.386  +      +      +      +      +      + a    +      +      + 
    5.8884k   33.386  +      +      +      +      +      + a    +      +      + 
    6.0256k   33.386  +      +      +      +      +      + a    +      +      + 
    6.1660k   33.386  +      +      +      +      +      + a    +      +      + 
    6.3096k   33.386 -+------+------+------+------+------+-a----+------+------+-
    6.4565k   33.386  +      +      +      +      +      + a    +      +      + 
    6.6069k   33.386  +      +      +      +      +      + a    +      +      + 
    6.7608k   33.386  +      +      +      +      +      + a    +      +      + 
    6.9183k   33.386  +      +      +      +      +      + a    +      +      + 
    7.0795k   33.386  +      +      +      +      +      + a    +      +      + 
    7.2444k   33.386  +      +      +      +      +      + a    +      +      + 
    7.4131k   33.386  +      +      +      +      +      + a    +      +      + 
    7.5858k   33.386  +      +      +      +      +      + a    +      +      + 
    7.7625k   33.386  +      +      +      +      +      + a    +      +      + 
    7.9433k   33.386 -+------+------+------+------+------+-a----+------+------+-
    8.1283k   33.386  +      +      +      +      +      + a    +      +      + 
    8.3176k   33.386  +      +      +      +      +      + a    +      +      + 
    8.5114k   33.386  +      +      +      +      +      + a    +      +      + 
    8.7096k   33.386  +      +      +      +      +      + a    +      +      + 
    8.9125k   33.386  +      +      +      +      +      + a    +      +      + 
    9.1201k   33.386  +      +      +      +      +      + a    +      +      + 
    9.3325k   33.386  +      +      +      +      +      + a    +      +      + 
    9.5499k   33.386  +      +      +      +      +      + a    +      +      + 
    9.7724k   33.386  +      +      +      +      +      + a    +      +      + 
   10.0000k   33.386 -+------+------+------+------+------+-a----+------+------+-
   10.2329k   33.386  +      +      +      +      +      + a    +      +      + 
   10.4713k   33.386  +      +      +      +      +      + a    +      +      + 
   10.7152k   33.386  +      +      +      +      +      + a    +      +      + 
   10.9648k   33.386  +      +      +      +      +      + a    +      +      + 
   11.2202k   33.386  +      +      +      +      +      + a    +      +      + 
   11.4815k   33.386  +      +      +      +      +      + a    +      +      + 
   11.7490k   33.386  +      +      +      +      +      + a    +      +      + 
   12.0226k   33.386  +      +      +      +      +      + a    +      +      + 
   12.3027k   33.386  +      +      +      +      +      + a    +      +      + 
   12.5893k   33.386 -+------+------+------+------+------+-a----+------+------+-
   12.8825k   33.386  +      +      +      +      +      + a    +      +      + 
   13.1826k   33.386  +      +      +      +      +      + a    +      +      + 
   13.4896k   33.386  +      +      +      +      +      + a    +      +      + 
   13.8038k   33.386  +      +      +      +      +      + a    +      +      + 
   14.1254k   33.386  +      +      +      +      +      + a    +      +      + 
   14.4544k   33.386  +      +      +      +      +      + a    +      +      + 
   14.7911k   33.386  +      +      +      +      +      + a    +      +      + 
   15.1356k   33.386  +      +      +      +      +      + a    +      +      + 
   15.4882k   33.386  +      +      +      +      +      + a    +      +      + 
   15.8489k   33.386 -+------+------+------+------+------+-a----+------+------+-
   16.2181k   33.386  +      +      +      +      +      + a    +      +      + 
   16.5959k   33.386  +      +      +      +      +      + a    +      +      + 
   16.9824k   33.386  +      +      +      +      +      + a    +      +      + 
   17.3780k   33.386  +      +      +      +      +      + a    +      +      + 
   17.7828k   33.386  +      +      +      +      +      + a    +      +      + 
   18.1970k   33.386  +      +      +      +      +      + a    +      +      + 
   18.6209k   33.386  +      +      +      +      +      + a    +      +      + 
   19.0546k   33.386  +      +      +      +      +      + a    +      +      + 
   19.4984k   33.386  +      +      +      +      +      + a    +      +      + 
   19.9526k   33.386 -+------+------+------+------+------+-a----+------+------+-
   20.4174k   33.386  +      +      +      +      +      + a    +      +      + 
   20.8930k   33.386  +      +      +      +      +      + a    +      +      + 
   21.3796k   33.386  +      +      +      +      +      + a    +      +      + 
   21.8776k   33.386  +      +      +      +      +      + a    +      +      + 
   22.3872k   33.386  +      +      +      +      +      + a    +      +      + 
   22.9087k   33.386  +      +      +      +      +      + a    +      +      + 
   23.4423k   33.386  +      +      +      +      +      + a    +      +      + 
   23.9883k   33.386  +      +      +      +      +      + a    +      +      + 
   24.5471k   33.386  +      +      +      +      +      + a    +      +      + 
   25.1189k   33.386 -+------+------+------+------+------+-a----+------+------+-
   25.7040k   33.386  +      +      +      +      +      + a    +      +      + 
   26.3027k   33.386  +      +      +      +      +      + a    +      +      + 
   26.9153k   33.386  +      +      +      +      +      + a    +      +      + 
   27.5423k   33.386  +      +      +      +      +      + a    +      +      + 
   28.1838k   33.386  +      +      +      +      +      + a    +      +      + 
   28.8403k   33.386  +      +      +      +      +      + a    +      +      + 
   29.5121k   33.386  +      +      +      +      +      + a    +      +      + 
   30.1995k   33.386  +      +      +      +      +      + a    +      +      + 
   30.9030k   33.386  +      +      +      +      +      + a    +      +      + 
   31.6228k   33.386 -+------+------+------+------+------+-a----+------+------+-
   32.3594k   33.386  +      +      +      +      +      + a    +      +      + 
   33.1131k   33.386  +      +      +      +      +      + a    +      +      + 
   33.8844k   33.386  +      +      +      +      +      + a    +      +      + 
   34.6737k   33.386  +      +      +      +      +      + a    +      +      + 
   35.4813k   33.386  +      +      +      +      +      + a    +      +      + 
   36.3078k   33.386  +      +      +      +      +      + a    +      +      + 
   37.1535k   33.386  +      +      +      +      +      + a    +      +      + 
   38.0189k   33.386  +      +      +      +      +      + a    +      +      + 
   38.9045k   33.386  +      +      +      +      +      + a    +      +      + 
   39.8107k   33.386 -+------+------+------+------+------+-a----+------+------+-
   40.7380k   33.386  +      +      +      +      +      + a    +      +      + 
   41.6869k   33.386  +      +      +      +      +      + a    +      +      + 
   42.6580k   33.386  +      +      +      +      +      + a    +      +      + 
   43.6516k   33.386  +      +      +      +      +      + a    +      +      + 
   44.6684k   33.386  +      +      +      +      +      + a    +      +      + 
   45.7088k   33.386  +      +      +      +      +      + a    +      +      + 
   46.7735k   33.386  +      +      +      +      +      + a    +      +      + 
   47.8630k   33.386  +      +      +      +      +      + a    +      +      + 
   48.9779k   33.386  +      +      +      +      +      + a    +      +      + 
   50.1187k   33.386 -+------+------+------+------+------+-a----+------+------+-
   51.2861k   33.386  +      +      +      +      +      + a    +      +      + 
   52.4807k   33.386  +      +      +      +      +      + a    +      +      + 
   53.7032k   33.386  +      +      +      +      +      + a    +      +      + 
   54.9541k   33.386  +      +      +      +      +      + a    +      +      + 
   56.2341k   33.386  +      +      +      +      +      + a    +      +      + 
   57.5440k   33.386  +      +      +      +      +      + a    +      +      + 
   58.8844k   33.386  +      +      +      +      +      + a    +      +      + 
   60.2560k   33.386  +      +      +      +      +      + a    +      +      + 
   61.6595k   33.386  +      +      +      +      +      + a    +      +      + 
   63.0957k   33.386 -+------+------+------+------+------+-a----+------+------+-
   64.5654k   33.386  +      +      +      +      +      + a    +      +      + 
   66.0693k   33.386  +      +      +      +      +      + a    +      +      + 
   67.6083k   33.386  +      +      +      +      +      + a    +      +      + 
   69.1831k   33.386  +      +      +      +      +      + a    +      +      + 
   70.7946k   33.386  +      +      +      +      +      + a    +      +      + 
   72.4436k   33.386  +      +      +      +      +      + a    +      +      + 
   74.1310k   33.386  +      +      +      +      +      + a    +      +      + 
   75.8578k   33.386  +      +      +      +      +      + a    +      +      + 
   77.6247k   33.386  +      +      +      +      +      + a    +      +      + 
   79.4328k   33.386 -+------+------+------+------+------+-a----+------+------+-
   81.2831k   33.386  +      +      +      +      +      + a    +      +      + 
   83.1764k   33.386  +      +      +      +      +      + a    +      +      + 
   85.1138k   33.386  +      +      +      +      +      + a    +      +      + 
   87.0964k   33.385  +      +      +      +      +      + a    +      +      + 
   89.1251k   33.385  +      +      +      +      +      + a    +      +      + 
   91.2011k   33.385  +      +      +      +      +      + a    +      +      + 
   93.3254k   33.385  +      +      +      +      +      + a    +      +      + 
   95.4993k   33.385  +      +      +      +      +      + a    +      +      + 
   97.7237k   33.385  +      +      +      +      +      + a    +      +      + 
  100.0000k   33.385 -+------+------+------+------+------+-a----+------+------+-
  102.3293k   33.385  +      +      +      +      +      + a    +      +      + 
  104.7129k   33.385  +      +      +      +      +      + a    +      +      + 
  107.1519k   33.385  +      +      +      +      +      + a    +      +      + 
  109.6478k   33.385  +      +      +      +      +      + a    +      +      + 
  112.2018k   33.385  +      +      +      +      +      + a    +      +      + 
  114.8154k   33.385  +      +      +      +      +      + a    +      +      + 
  117.4898k   33.385  +      +      +      +      +      + a    +      +      + 
  120.2264k   33.385  +      +      +      +      +      + a    +      +      + 
  123.0269k   33.385  +      +      +      +      +      + a    +      +      + 
  125.8925k   33.385 -+------+------+------+------+------+-a----+------+------+-
  128.8250k   33.385  +      +      +      +      +      + a    +      +      + 
  131.8257k   33.385  +      +      +      +      +      + a    +      +      + 
  134.8963k   33.385  +      +      +      +      +      + a    +      +      + 
  138.0384k   33.385  +      +      +      +      +      + a    +      +      + 
  141.2538k   33.385  +      +      +      +      +      + a    +      +      + 
  144.5440k   33.385  +      +      +      +      +      + a    +      +      + 
  147.9108k   33.385  +      +      +      +      +      + a    +      +      + 
  151.3561k   33.385  +      +      +      +      +      + a    +      +      + 
  154.8817k   33.385  +      +      +      +      +      + a    +      +      + 
  158.4893k   33.385 -+------+------+------+------+------+-a----+------+------+-
  162.1810k   33.385  +      +      +      +      +      + a    +      +      + 
  165.9587k   33.384  +      +      +      +      +      + a    +      +      + 
  169.8244k   33.384  +      +      +      +      +      + a    +      +      + 
  173.7801k   33.384  +      +      +      +      +      + a    +      +      + 
  177.8279k   33.384  +      +      +      +      +      + a    +      +      + 
  181.9701k   33.384  +      +      +      +      +      + a    +      +      + 
  186.2087k   33.384  +      +      +      +      +      + a    +      +      + 
  190.5461k   33.384  +      +      +      +      +      + a    +      +      + 
  194.9845k   33.384  +      +      +      +      +      + a    +      +      + 
  199.5262k   33.384 -+------+------+------+------+------+-a----+------+------+-
  204.1738k   33.384  +      +      +      +      +      + a    +      +      + 
  208.9296k   33.384  +      +      +      +      +      + a    +      +      + 
  213.7962k   33.384  +      +      +      +      +      + a    +      +      + 
  218.7762k   33.383  +      +      +      +      +      + a    +      +      + 
  223.8721k   33.383  +      +      +      +      +      + a    +      +      + 
  229.0868k   33.383  +      +      +      +      +      + a    +      +      + 
  234.4229k   33.383  +      +      +      +      +      + a    +      +      + 
  239.8833k   33.383  +      +      +      +      +      + a    +      +      + 
  245.4709k   33.383  +      +      +      +      +      + a    +      +      + 
  251.1886k   33.383 -+------+------+------+------+------+-a----+------+------+-
  257.0396k   33.383  +      +      +      +      +      + a    +      +      + 
  263.0268k   33.382  +      +      +      +      +      + a    +      +      + 
  269.1535k   33.382  +      +      +      +      +      + a    +      +      + 
  275.4229k   33.382  +      +      +      +      +      + a    +      +      + 
  281.8383k   33.382  +      +      +      +      +      + a    +      +      + 
  288.4032k   33.382  +      +      +      +      +      + a    +      +      + 
  295.1209k   33.381  +      +      +      +      +      + a    +      +      + 
  301.9952k   33.381  +      +      +      +      +      + a    +      +      + 
  309.0295k   33.381  +      +      +      +      +      + a    +      +      + 
  316.2278k   33.381 -+------+------+------+------+------+-a----+------+------+-
  323.5937k   33.381  +      +      +      +      +      + a    +      +      + 
  331.1311k   33.380  +      +      +      +      +      + a    +      +      + 
  338.8442k   33.380  +      +      +      +      +      + a    +      +      + 
  346.7369k   33.380  +      +      +      +      +      + a    +      +      + 
  354.8134k   33.379  +      +      +      +      +      + a    +      +      + 
  363.0781k   33.379  +      +      +      +      +      + a    +      +      + 
  371.5352k   33.379  +      +      +      +      +      + a    +      +      + 
  380.1894k   33.378  +      +      +      +      +      + a    +      +      + 
  389.0451k   33.378  +      +      +      +      +      + a    +      +      + 
  398.1072k   33.378 -+------+------+------+------+------+-a----+------+------+-
  407.3803k   33.377  +      +      +      +      +      + a    +      +      + 
  416.8694k   33.377  +      +      +      +      +      + a    +      +      + 
  426.5795k   33.377  +      +      +      +      +      + a    +      +      + 
  436.5158k   33.376  +      +      +      +      +      + a    +      +      + 
  446.6836k   33.376  +      +      +      +      +      + a    +      +      + 
  457.0882k   33.375  +      +      +      +      +      + a    +      +      + 
  467.7351k   33.375  +      +      +      +      +      + a    +      +      + 
  478.6301k   33.374  +      +      +      +      +      + a    +      +      + 
  489.7788k   33.374  +      +      +      +      +      + a    +      +      + 
  501.1872k   33.373 -+------+------+------+------+------+-a----+------+------+-
  512.8614k   33.372  +      +      +      +      +      + a    +      +      + 
  524.8075k   33.372  +      +      +      +      +      + a    +      +      + 
  537.0318k   33.371  +      +      +      +      +      + a    +      +      + 
  549.5409k   33.370  +      +      +      +      +      + a    +      +      + 
  562.3413k   33.370  +      +      +      +      +      + a    +      +      + 
  575.4399k   33.369  +      +      +      +      +      + a    +      +      + 
  588.8437k   33.368  +      +      +      +      +      + a    +      +      + 
  602.5596k   33.367  +      +      +      +      +      + a    +      +      + 
  616.5950k   33.366  +      +      +      +      +      + a    +      +      + 
  630.9573k   33.366 -+------+------+------+------+------+-a----+------+------+-
  645.6542k   33.365  +      +      +      +      +      + a    +      +      + 
  660.6934k   33.364  +      +      +      +      +      + a    +      +      + 
  676.0830k   33.363  +      +      +      +      +      + a    +      +      + 
  691.8310k   33.361  +      +      +      +      +      + a    +      +      + 
  707.9458k   33.360  +      +      +      +      +      + a    +      +      + 
  724.4360k   33.359  +      +      +      +      +      + a    +      +      + 
  741.3102k   33.358  +      +      +      +      +      + a    +      +      + 
  758.5776k   33.357  +      +      +      +      +      + a    +      +      + 
  776.2471k   33.355  +      +      +      +      +      + a    +      +      + 
  794.3282k   33.354 -+------+------+------+------+------+-a----+------+------+-
  812.8305k   33.352  +      +      +      +      +      + a    +      +      + 
  831.7638k   33.351  +      +      +      +      +      + a    +      +      + 
  851.1380k   33.349  +      +      +      +      +      + a    +      +      + 
  870.9636k   33.347  +      +      +      +      +      + a    +      +      + 
  891.2509k   33.345  +      +      +      +      +      + a    +      +      + 
  912.0108k   33.344  +      +      +      +      +      + a    +      +      + 
  933.2543k   33.342  +      +      +      +      +      + a    +      +      + 
  954.9926k   33.339  +      +      +      +      +      + a    +      +      + 
  977.2372k   33.337  +      +      +      +      +      + a    +      +      + 
    1.0000x   33.335 -+------+------+------+------+------+-a----+------+------+-
    1.0233x   33.333  +      +      +      +      +      + a    +      +      + 
    1.0471x   33.330  +      +      +      +      +      + a    +      +      + 
    1.0715x   33.328  +      +      +      +      +      + a    +      +      + 
    1.0965x   33.325  +      +      +      +      +      + a    +      +      + 
    1.1220x   33.322  +      +      +      +      +      + a    +      +      + 
    1.1482x   33.319  +      +      +      +      +      + a    +      +      + 
    1.1749x   33.316  +      +      +      +      +      + a    +      +      + 
    1.2023x   33.313  +      +      +      +      +      + a    +      +      + 
    1.2303x   33.309  +      +      +      +      +      + a    +      +      + 
    1.2589x   33.306 -+------+------+------+------+------+-a----+------+------+-
    1.2882x   33.302  +      +      +      +      +      + a    +      +      + 
    1.3183x   33.298  +      +      +      +      +      + a    +      +      + 
    1.3490x   33.294  +      +      +      +      +      + a    +      +      + 
    1.3804x   33.289  +      +      +      +      +      + a    +      +      + 
    1.4125x   33.285  +      +      +      +      +      + a    +      +      + 
    1.4454x   33.280  +      +      +      +      +      + a    +      +      + 
    1.4791x   33.275  +      +      +      +      +      + a    +      +      + 
    1.5136x   33.270  +      +      +      +      +      + a    +      +      + 
    1.5488x   33.265  +      +      +      +      +      + a    +      +      + 
    1.5849x   33.259 -+------+------+------+------+------+-a----+------+------+-
    1.6218x   33.253  +      +      +      +      +      + a    +      +      + 
    1.6596x   33.247  +      +      +      +      +      + a    +      +      + 
    1.6982x   33.241  +      +      +      +      +      + a    +      +      + 
    1.7378x   33.234  +      +      +      +      +      + a    +      +      + 
    1.7783x   33.227  +      +      +      +      +      + a    +      +      + 
    1.8197x   33.220  +      +      +      +      +      + a    +      +      + 
    1.8621x   33.212  +      +      +      +      +      + a    +      +      + 
    1.9055x   33.204  +      +      +      +      +      + a    +      +      + 
    1.9498x   33.196  +      +      +      +      +      + a    +      +      + 
    1.9953x   33.187 -+------+------+------+------+------+-a----+------+------+-
    2.0417x   33.178  +      +      +      +      +      + a    +      +      + 
    2.0893x   33.168  +      +      +      +      +      + a    +      +      + 
    2.1380x   33.158  +      +      +      +      +      + a    +      +      + 
    2.1878x   33.148  +      +      +      +      +      + a    +      +      + 
    2.2387x   33.137  +      +      +      +      +      + a    +      +      + 
    2.2909x   33.125  +      +      +      +      +      + a    +      +      + 
    2.3442x   33.113  +      +      +      +      +      + a    +      +      + 
    2.3988x   33.101  +      +      +      +      +      + a    +      +      + 
    2.4547x   33.088  +      +      +      +      +      + a    +      +      + 
    2.5119x   33.074 -+------+------+------+------+------+-a----+------+------+-
    2.5704x   33.060  +      +      +      +      +      + a    +      +      + 
    2.6303x   33.045  +      +      +      +      +      + a    +      +      + 
    2.6915x   33.030  +      +      +      +      +      + a    +      +      + 
    2.7542x   33.014  +      +      +      +      +      + a    +      +      + 
    2.8184x   32.997  +      +      +      +      +      + a    +      +      + 
    2.8840x   32.980  +      +      +      +      +      + a    +      +      + 
    2.9512x   32.962  +      +      +      +      +      + a    +      +      + 
    3.0200x   32.943  +      +      +      +      +      + a    +      +      + 
    3.0903x   32.923  +      +      +      +      +      + a    +      +      + 
    3.1623x   32.902 -+------+------+------+------+------+-a----+------+------+-
    3.2359x   32.881  +      +      +      +      +      + a    +      +      + 
    3.3113x   32.858  +      +      +      +      +      + a    +      +      + 
    3.3884x   32.835  +      +      +      +      +      + a    +      +      + 
    3.4674x   32.810  +      +      +      +      +      + a    +      +      + 
    3.5481x   32.785  +      +      +      +      +      + a    +      +      + 
    3.6308x   32.759  +      +      +      +      +      + a    +      +      + 
    3.7154x   32.731  +      +      +      +      +      + a    +      +      + 
    3.8019x   32.703  +      +      +      +      +      + a    +      +      + 
    3.8905x   32.673  +      +      +      +      +      + a    +      +      + 
    3.9811x   32.642 -+------+------+------+------+------+-a----+------+------+-
    4.0738x   32.610  +      +      +      +      +      + a    +      +      + 
    4.1687x   32.577  +      +      +      +      +      + a    +      +      + 
    4.2658x   32.542  +      +      +      +      +      + a    +      +      + 
    4.3652x   32.506  +      +      +      +      +      + a    +      +      + 
    4.4668x   32.469  +      +      +      +      +      + a    +      +      + 
    4.5709x   32.430  +      +      +      +      +      + a    +      +      + 
    4.6774x   32.390  +      +      +      +      +      + a    +      +      + 
    4.7863x   32.348  +      +      +      +      +      + a    +      +      + 
    4.8978x   32.305  +      +      +      +      +      + a    +      +      + 
    5.0119x   32.260 -+------+------+------+------+------+-a----+------+------+-
    5.1286x   32.213  +      +      +      +      +      + a    +      +      + 
    5.2481x   32.165  +      +      +      +      +      + a    +      +      + 
    5.3703x   32.115  +      +      +      +      +      +a     +      +      + 
    5.4954x   32.063  +      +      +      +      +      +a     +      +      + 
    5.6234x   32.010  +      +      +      +      +      +a     +      +      + 
    5.7544x   31.955  +      +      +      +      +      +a     +      +      + 
    5.8884x   31.898  +      +      +      +      +      +a     +      +      + 
    6.0256x   31.839  +      +      +      +      +      +a     +      +      + 
    6.1660x   31.778  +      +      +      +      +      +a     +      +      + 
    6.3096x   31.715 -+------+------+------+------+------+a-----+------+------+-
    6.4565x   31.650  +      +      +      +      +      +a     +      +      + 
    6.6069x   31.583  +      +      +      +      +      +a     +      +      + 
    6.7608x   31.514  +      +      +      +      +      +a     +      +      + 
    6.9183x   31.443  +      +      +      +      +      +a     +      +      + 
    7.0795x   31.370  +      +      +      +      +      +a     +      +      + 
    7.2444x   31.294  +      +      +      +      +      +a     +      +      + 
    7.4131x   31.217  +      +      +      +      +      +a     +      +      + 
    7.5858x   31.137  +      +      +      +      +      +a     +      +      + 
    7.7625x   31.055  +      +      +      +      +      +a     +      +      + 
    7.9433x   30.971 -+------+------+------+------+------+a-----+------+------+-
    8.1283x   30.885  +      +      +      +      +      +a     +      +      + 
    8.3176x   30.796  +      +      +      +      +      +a     +      +      + 
    8.5114x   30.705  +      +      +      +      +      a      +      +      + 
    8.7096x   30.612  +      +      +      +      +      a      +      +      + 
    8.9125x   30.516  +      +      +      +      +      a      +      +      + 
    9.1201x   30.418  +      +      +      +      +      a      +      +      + 
    9.3325x   30.318  +      +      +      +      +      a      +      +      + 
    9.5499x   30.215  +      +      +      +      +      a      +      +      + 
    9.7724x   30.111  +      +      +      +      +      a      +      +      + 
   10.0000x   30.003 -+------+------+------+------+------a------+------+------+-
   10.2329x   29.894  +      +      +      +      +      a      +      +      + 
   10.4713x   29.782  +      +      +      +      +      a      +      +      + 
   10.7152x   29.668  +      +      +      +      +      a      +      +      + 
   10.9648x   29.552  +      +      +      +      +      a      +      +      + 
   11.2202x   29.434  +      +      +      +      +      a      +      +      + 
   11.4815x   29.313  +      +      +      +      +      a      +      +      + 
   11.7490x   29.190  +      +      +      +      +     a+      +      +      + 
   12.0226x   29.065  +      +      +      +      +     a+      +      +      + 
   12.3027x   28.938  +      +      +      +      +     a+      +      +      + 
   12.5893x   28.809 -+------+------+------+------+-----a+------+------+------+-
   12.8825x   28.677  +      +      +      +      +     a+      +      +      + 
   13.1826x   28.544  +      +      +      +      +     a+      +      +      + 
   13.4896x   28.408  +      +      +      +      +     a+      +      +      + 
   13.8038x   28.271  +      +      +      +      +     a+      +      +      + 
   14.1254x   28.131  +      +      +      +      +     a+      +      +      + 
   14.4544x   27.990  +      +      +      +      +     a+      +      +      + 
   14.7911x   27.847  +      +      +      +      +    a +      +      +      + 
   15.1356x   27.701  +      +      +      +      +    a +      +      +      + 
   15.4882x   27.554  +      +      +      +      +    a +      +      +      + 
   15.8489x   27.406 -+------+------+------+------+----a-+------+------+------+-
   16.2181x   27.255  +      +      +      +      +    a +      +      +      + 
   16.5959x   27.103  +      +      +      +      +    a +      +      +      + 
   16.9824x   26.949  +      +      +      +      +    a +      +      +      + 
   17.3780x   26.793  +      +      +      +      +    a +      +      +      + 
   17.7828x   26.636  +      +      +      +      +    a +      +      +      + 
   18.1970x   26.477  +      +      +      +      +    a +      +      +      + 
   18.6209x   26.317  +      +      +      +      +   a  +      +      +      + 
   19.0546x   26.156  +      +      +      +      +   a  +      +      +      + 
   19.4984x   25.992  +      +      +      +      +   a  +      +      +      + 
   19.9526x   25.828 -+------+------+------+------+---a--+------+------+------+-
   20.4174x   25.662  +      +      +      +      +   a  +      +      +      + 
   20.8930x   25.495  +      +      +      +      +   a  +      +      +      + 
   21.3796x   25.327  +      +      +      +      +   a  +      +      +      + 
   21.8776x   25.157  +      +      +      +      +   a  +      +      +      + 
   22.3872x   24.986  +      +      +      +      +  a   +      +      +      + 
   22.9087x   24.814  +      +      +      +      +  a   +      +      +      + 
   23.4423x   24.641  +      +      +      +      +  a   +      +      +      + 
   23.9883x   24.467  +      +      +      +      +  a   +      +      +      + 
   24.5471x   24.292  +      +      +      +      +  a   +      +      +      + 
   25.1189x   24.115 -+------+------+------+------+--a---+------+------+------+-
   25.7040x   23.938  +      +      +      +      +  a   +      +      +      + 
   26.3027x   23.760  +      +      +      +      +  a   +      +      +      + 
   26.9153x   23.581  +      +      +      +      +  a   +      +      +      + 
   27.5423x   23.401  +      +      +      +      + a    +      +      +      + 
   28.1838x   23.220  +      +      +      +      + a    +      +      +      + 
   28.8403x   23.038  +      +      +      +      + a    +      +      +      + 
   29.5121x   22.856  +      +      +      +      + a    +      +      +      + 
   30.1995x   22.672  +      +      +      +      + a    +      +      +      + 
   30.9030x   22.488  +      +      +      +      + a    +      +      +      + 
   31.6228x   22.303 -+------+------+------+------+-a----+------+------+------+-
   32.3594x   22.118  +      +      +      +      +a     +      +      +      + 
   33.1131x   21.932  +      +      +      +      +a     +      +      +      + 
   33.8844x   21.745  +      +      +      +      +a     +      +      +      + 
   34.6737x   21.558  +      +      +      +      +a     +      +      +      + 
   35.4813x   21.370  +      +      +      +      +a     +      +      +      + 
   36.3078x   21.181  +      +      +      +      +a     +      +      +      + 
   37.1535x   20.992  +      +      +      +      +a     +      +      +      + 
   38.0189x   20.802  +      +      +      +      +a     +      +      +      + 
   38.9045x   20.612  +      +      +      +      a      +      +      +      + 
   39.8107x   20.421 -+------+------+------+------a------+------+------+------+-
   40.7380x   20.230  +      +      +      +      a      +      +      +      + 
   41.6869x   20.038  +      +      +      +      a      +      +      +      + 
   42.6580x   19.846  +      +      +      +      a      +      +      +      + 
   43.6516x   19.653  +      +      +      +      a      +      +      +      + 
   44.6684x   19.460  +      +      +      +      a      +      +      +      + 
   45.7088x   19.266  +      +      +      +     a+      +      +      +      + 
   46.7735x   19.072  +      +      +      +     a+      +      +      +      + 
   47.8630x   18.878  +      +      +      +     a+      +      +      +      + 
   48.9779x   18.683  +      +      +      +     a+      +      +      +      + 
   50.1187x   18.488 -+------+------+------+-----a+------+------+------+------+-
   51.2861x   18.292  +      +      +      +     a+      +      +      +      + 
   52.4807x   18.096  +      +      +      +     a+      +      +      +      + 
   53.7032x   17.900  +      +      +      +     a+      +      +      +      + 
   54.9541x   17.703  +      +      +      +    a +      +      +      +      + 
   56.2341x   17.506  +      +      +      +    a +      +      +      +      + 
   57.5440x   17.309  +      +      +      +    a +      +      +      +      + 
   58.8844x   17.111  +      +      +      +    a +      +      +      +      + 
   60.2560x   16.913  +      +      +      +    a +      +      +      +      + 
   61.6595x   16.715  +      +      +      +    a +      +      +      +      + 
   63.0957x   16.517 -+------+------+------+----a-+------+------+------+------+-
   64.5654x   16.318  +      +      +      +   a  +      +      +      +      + 
   66.0693x   16.118  +      +      +      +   a  +      +      +      +      + 
   67.6083x   15.919  +      +      +      +   a  +      +      +      +      + 
   69.1831x   15.719  +      +      +      +   a  +      +      +      +      + 
   70.7946x   15.518  +      +      +      +   a  +      +      +      +      + 
   72.4436x   15.318  +      +      +      +   a  +      +      +      +      + 
   74.1310x   15.117  +      +      +      +   a  +      +      +      +      + 
   75.8578x   14.916  +      +      +      +  a   +      +      +      +      + 
   77.6247x   14.714  +      +      +      +  a   +      +      +      +      + 
   79.4328x   14.512 -+------+------+------+--a---+------+------+------+------+-
   81.2831x   14.310  +      +      +      +  a   +      +      +      +      + 
   83.1764x   14.108  +      +      +      +  a   +      +      +      +      + 
   85.1138x   13.905  +      +      +      +  a   +      +      +      +      + 
   87.0964x   13.702  +      +      +      +  a   +      +      +      +      + 
   89.1251x   13.498  +      +      +      + a    +      +      +      +      + 
   91.2011x   13.294  +      +      +      + a    +      +      +      +      + 
   93.3254x   13.090  +      +      +      + a    +      +      +      +      + 
   95.4993x   12.886  +      +      +      + a    +      +      +      +      + 
   97.7237x   12.681  +      +      +      + a    +      +      +      +      + 
  100.0000x   12.475 -+------+------+------+-a----+------+------+------+------+-
  102.3293x   12.270  +      +      +      + a    +      +      +      +      + 
  104.7129x   12.063  +      +      +      +a     +      +      +      +      + 
  107.1519x   11.857  +      +      +      +a     +      +      +      +      + 
  109.6478x   11.650  +      +      +      +a     +      +      +      +      + 
  112.2018x   11.443  +      +      +      +a     +      +      +      +      + 
  114.8154x   11.235  +      +      +      +a     +      +      +      +      + 
  117.4898x   11.027  +      +      +      +a     +      +      +      +      + 
  120.2264x   10.818  +      +      +      +a     +      +      +      +      + 
  123.0269x   10.609  +      +      +      a      +      +      +      +      + 
  125.8925x   10.399 -+------+------+------a------+------+------+------+------+-
  128.8250x   10.189  +      +      +      a      +      +      +      +      + 
  131.8257x    9.978  +      +      +      a      +      +      +      +      + 
  134.8963x    9.767  +      +      +      a      +      +      +      +      + 
  138.0384x    9.555  +      +      +      a      +      +      +      +      + 
  141.2538x    9.342  +      +      +      a      +      +      +      +      + 
  144.5440x    9.129  +      +      +     a+      +      +      +      +      + 
  147.9108x    8.916  +      +      +     a+      +      +      +      +      + 
  151.3561x    8.701  +      +      +     a+      +      +      +      +      + 
  154.8817x    8.486  +      +      +     a+      +      +      +      +      + 
  158.4893x    8.271 -+------+------+-----a+------+------+------+------+------+-
  162.1810x    8.054  +      +      +     a+      +      +      +      +      + 
  165.9587x    7.837  +      +      +    a +      +      +      +      +      + 
  169.8244x    7.620  +      +      +    a +      +      +      +      +      + 
  173.7801x    7.401  +      +      +    a +      +      +      +      +      + 
  177.8279x    7.182  +      +      +    a +      +      +      +      +      + 
  181.9701x    6.962  +      +      +    a +      +      +      +      +      + 
  186.2087x    6.741  +      +      +    a +      +      +      +      +      + 
  190.5461x    6.519  +      +      +    a +      +      +      +      +      + 
  194.9845x    6.296  +      +      +   a  +      +      +      +      +      + 
  199.5262x    6.073 -+------+------+---a--+------+------+------+------+------+-
  204.1738x    5.848  +      +      +   a  +      +      +      +      +      + 
  208.9296x    5.623  +      +      +   a  +      +      +      +      +      + 
  213.7962x    5.396  +      +      +   a  +      +      +      +      +      + 
  218.7762x    5.169  +      +      +   a  +      +      +      +      +      + 
  223.8721x    4.940  +      +      +  a   +      +      +      +      +      + 
  229.0868x    4.711  +      +      +  a   +      +      +      +      +      + 
  234.4229x    4.480  +      +      +  a   +      +      +      +      +      + 
  239.8833x    4.249  +      +      +  a   +      +      +      +      +      + 
  245.4709x    4.016  +      +      +  a   +      +      +      +      +      + 
  251.1886x    3.782 -+------+------+--a---+------+------+------+------+------+-
  257.0396x    3.547  +      +      + a    +      +      +      +      +      + 
  263.0268x    3.311  +      +      + a    +      +      +      +      +      + 
  269.1535x    3.073  +      +      + a    +      +      +      +      +      + 
  275.4229x    2.835  +      +      + a    +      +      +      +      +      + 
  281.8383x    2.595  +      +      + a    +      +      +      +      +      + 
  288.4032x    2.354  +      +      + a    +      +      +      +      +      + 
  295.1209x    2.111  +      +      +a     +      +      +      +      +      + 
  301.9952x    1.868  +      +      +a     +      +      +      +      +      + 
  309.0295x    1.623  +      +      +a     +      +      +      +      +      + 
  316.2278x    1.377 -+------+------+a-----+------+------+------+------+------+-
  323.5937x    1.129  +      +      +a     +      +      +      +      +      + 
  331.1311x  880.330m +      +      +a     +      +      +      +      +      + 
  338.8442x  630.259m +      +      a      +      +      +      +      +      + 
  346.7369x  378.891m +      +      a      +      +      +      +      +      + 
  354.8134x  126.231m +      +      a      +      +      +      +      +      + 
  363.0781x -127.716m +      +      a      +      +      +      +      +      + 
  371.5352x -382.943m +      +      a      +      +      +      +      +      + 
  380.1894x -639.437m +      +      a      +      +      +      +      +      + 
  389.0451x -897.185m +      +     a+      +      +      +      +      +      + 
  398.1072x   -1.156 -+------+-----a+------+------+------+------+------+------+-
  407.3803x   -1.416  +      +     a+      +      +      +      +      +      + 
  416.8694x   -1.678  +      +     a+      +      +      +      +      +      + 
  426.5795x   -1.940  +      +     a+      +      +      +      +      +      + 
  436.5158x   -2.204  +      +    a +      +      +      +      +      +      + 
  446.6836x   -2.469  +      +    a +      +      +      +      +      +      + 
  457.0882x   -2.735  +      +    a +      +      +      +      +      +      + 
  467.7351x   -3.002  +      +    a +      +      +      +      +      +      + 
  478.6301x   -3.269  +      +    a +      +      +      +      +      +      + 
  489.7788x   -3.538  +      +    a +      +      +      +      +      +      + 
[...]
  cgs      259.5831f  259.5831f  475.9389f  475.9389f    2.0847p  522.2227f
  cgd       44.3964f   44.3964f   69.3243f   69.3243f  210.8537f   47.0532f



 ******  
 nmos

  ******  ac analysis tnom=  25.000 temp=  25.000 *****

          ***** job concluded
1****** HSPICE -- F-2011.09-SP2 32-BIT (Feb 27 2012) linux ******               
 ******  
 nmos

  ******  ac analysis tnom=  25.000 temp=  25.000 *****
 ***** operating point status is all       simulation time is     0.     

   *** parameter vic =    0.000E+00 ***

    node    =voltage      node    =voltage      node    =voltage

 +0:b       =-709.1635m 0:g34     = 445.5059m 0:g56     =-477.9546m
 +0:vcc     = 900.0000m 0:vdd     =-900.0000m 0:vin1    =-235.0000m
 +0:vin2    =-235.0000m 0:vout    = 445.5059m


 **** voltage sources

 subckt                                              
 element  0:vcc1     0:vdd1     0:vin1x    0:vin2x   
  volts    900.0000m -900.0000m -235.0000m -235.0000m
  current -780.2095u  780.2095u    0.         0.     
  power    702.1886u  702.1886u    0.         0.     

     total voltage source power dissipation=    1.4044m       watts



 **** resistors

 subckt             
 element  0:r1      
  r value    8.5600k
  v drop     1.3780 
  current  160.9760u
  power    221.8176u



 **** mosfets


 subckt                                                                    
 element  0:m1       0:m2       0:m3       0:m4       0:m5       0:m6      
 model    0:n_18     0:n_18     0:p_18     0:p_18     0:n_18     0:n_18    
 region     Saturati   Saturati   Saturati   Saturati   Saturati   Saturati
  id       309.6167u  309.6167u -309.6167u -309.6167u  619.2335u  160.9760u
  ibs        0.         0.         0.         0.         0.         0.     
  ibd        0.         0.         0.         0.         0.         0.     
  vgs      474.1635m  474.1635m -454.4941m -454.4941m  422.0454m  422.0454m
  vds        1.1547     1.1547  -454.4941m -454.4941m  190.8365m  422.0454m
  vbs      709.1635m  709.1635m -900.0000m -900.0000m  900.0000m  900.0000m
  vth      294.3444m  294.3444m -246.7676m -246.7676m  232.2481m  230.7807m
  vdsat    114.3876m  114.3876m -144.6249m -144.6249m  111.7297m  112.5946m
  vod      179.8191m  179.8191m -207.7265m -207.7265m  189.7973m  191.2648m
  beta      33.6232m   33.6232m   21.1176m   21.1176m   69.9878m   17.5143m
  gam eff  595.5575m  595.5575m  545.6505m  545.6505m  595.7658m  595.7612m
  gm         3.7856m    3.7856m    2.9633m    2.9633m    7.5049m    1.9555m
  gds       37.6955u   37.6955u   42.7812u   42.7812u  214.3042u   19.7987u
  gmb      449.9718u  449.9718u  431.9028u  431.9028u  747.7468u  193.9524u
  cdtot    102.0668f  102.0668f  218.4678f  218.4678f  559.0424f  128.1977f
  cgtot    304.2391f  304.2391f  533.9290f  533.9290f    2.2862p  567.4123f
  cstot    217.8867f  217.8867f  420.1913f  420.1913f    1.3641p  342.4238f
  cbtot    160.4392f  160.4392f  362.6777f  362.6777f  884.9101f  215.8308f
  cgs      259.5831f  259.5831f  475.9389f  475.9389f    2.0847p  522.2227f
  cgd       44.3964f   44.3964f   69.3243f   69.3243f  210.8537f   47.0532f



 ******  
 nmos

  ******  ac analysis tnom=  25.000 temp=  25.000 *****

          ***** job concluded
1****** HSPICE -- F-2011.09-SP2 32-BIT (Feb 27 2012) linux ******               
 ******  
 nmos

  ******  ac analysis tnom=  25.000 temp=  25.000 *****
 ***** operating point status is all       simulation time is     0.     

   *** parameter vic =    1.000E-01 ***

    node    =voltage      node    =voltage      node    =voltage

 +0:b       =-709.1635m 0:g34     = 445.5059m 0:g56     =-477.9546m
 +0:vcc     = 900.0000m 0:vdd     =-900.0000m 0:vin1    =-235.0000m
 +0:vin2    =-235.0000m 0:vout    = 445.5059m


 **** voltage sources

 subckt                                              
 element  0:vcc1     0:vdd1     0:vin1x    0:vin2x   
  volts    900.0000m -900.0000m -235.0000m -235.0000m
  current -780.2095u  780.2095u    0.         0.     
  power    702.1886u  702.1886u    0.         0.     

     total voltage source power dissipation=    1.4044m       watts



 **** resistors

 subckt             
 element  0:r1      
  r value    8.5600k
  v drop     1.3780 
  current  160.9760u
  power    221.8176u



 **** mosfets


 subckt                                                                    
 element  0:m1       0:m2       0:m3       0:m4       0:m5       0:m6      
 model    0:n_18     0:n_18     0:p_18     0:p_18     0:n_18     0:n_18    
 region     Saturati   Saturati   Saturati   Saturati   Saturati   Saturati
  id       309.6167u  309.6167u -309.6167u -309.6167u  619.2335u  160.9760u
  ibs        0.         0.         0.         0.         0.         0.     
  ibd        0.         0.         0.         0.         0.         0.     
  vgs      474.1635m  474.1635m -454.4941m -454.4941m  422.0454m  422.0454m
  vds        1.1547     1.1547  -454.4941m -454.4941m  190.8365m  422.0454m
  vbs      709.1635m  709.1635m -900.0000m -900.0000m  900.0000m  900.0000m
  vth      294.3444m  294.3444m -246.7676m -246.7676m  232.2481m  230.7807m
  vdsat    114.3876m  114.3876m -144.6249m -144.6249m  111.7297m  112.5946m
  vod      179.8191m  179.8191m -207.7265m -207.7265m  189.7973m  191.2648m
  beta      33.6232m   33.6232m   21.1176m   21.1176m   69.9878m   17.5143m
  gam eff  595.5575m  595.5575m  545.6505m  545.6505m  595.7658m  595.7612m
  gm         3.7856m    3.7856m    2.9633m    2.9633m    7.5049m    1.9555m
  gds       37.6955u   37.6955u   42.7812u   42.7812u  214.3042u   19.7987u
  gmb      449.9718u  449.9718u  431.9028u  431.9028u  747.7468u  193.9524u
  cdtot    102.0668f  102.0668f  218.4678f  218.4678f  559.0424f  128.1977f
  cgtot    304.2391f  304.2391f  533.9290f  533.9290f    2.2862p  567.4123f
  cstot    217.8867f  217.8867f  420.1913f  420.1913f    1.3641p  342.4238f
  cbtot    160.4392f  160.4392f  362.6777f  362.6777f  884.9101f  215.8308f
  cgs      259.5831f  259.5831f  475.9389f  475.9389f    2.0847p  522.2227f
  cgd       44.3964f   44.3964f   69.3243f   69.3243f  210.8537f   47.0532f



 ******  
 nmos

  ******  ac analysis tnom=  25.000 temp=  25.000 *****

          ***** job concluded
1****** HSPICE -- F-2011.09-SP2 32-BIT (Feb 27 2012) linux ******               
 ******  
 nmos

  ******  ac analysis tnom=  25.000 temp=  25.000 *****
 ***** operating point status is all       simulation time is     0.     

   *** parameter vic =    2.000E-01 ***

    node    =voltage      node    =voltage      node    =voltage

 +0:b       =-709.1635m 0:g34     = 445.5059m 0:g56     =-477.9546m
 +0:vcc     = 900.0000m 0:vdd     =-900.0000m 0:vin1    =-235.0000m
 +0:vin2    =-235.0000m 0:vout    = 445.5059m


 **** voltage sources

 subckt                                              
 element  0:vcc1     0:vdd1     0:vin1x    0:vin2x   
  volts    900.0000m -900.0000m -235.0000m -235.0000m
  current -780.2095u  780.2095u    0.         0.     
  power    702.1886u  702.1886u    0.         0.     

     total voltage source power dissipation=    1.4044m       watts



 **** resistors

 subckt             
 element  0:r1      
  r value    8.5600k
  v drop     1.3780 
  current  160.9760u
  power    221.8176u



 **** mosfets


 subckt                                                                    
 element  0:m1       0:m2       0:m3       0:m4       0:m5       0:m6      
 model    0:n_18     0:n_18     0:p_18     0:p_18     0:n_18     0:n_18    
 region     Saturati   Saturati   Saturati   Saturati   Saturati   Saturati
  id       309.6167u  309.6167u -309.6167u -309.6167u  619.2335u  160.9760u
  ibs        0.         0.         0.         0.         0.         0.     
  ibd        0.         0.         0.         0.         0.         0.     
  vgs      474.1635m  474.1635m -454.4941m -454.4941m  422.0454m  422.0454m
  vds        1.1547     1.1547  -454.4941m -454.4941m  190.8365m  422.0454m
  vbs      709.1635m  709.1635m -900.0000m -900.0000m  900.0000m  900.0000m
  vth      294.3444m  294.3444m -246.7676m -246.7676m  232.2481m  230.7807m
  vdsat    114.3876m  114.3876m -144.6249m -144.6249m  111.7297m  112.5946m
  vod      179.8191m  179.8191m -207.7265m -207.7265m  189.7973m  191.2648m
  beta      33.6232m   33.6232m   21.1176m   21.1176m   69.9878m   17.5143m
  gam eff  595.5575m  595.5575m  545.6505m  545.6505m  595.7658m  595.7612m
  gm         3.7856m    3.7856m    2.9633m    2.9633m    7.5049m    1.9555m
  gds       37.6955u   37.6955u   42.7812u   42.7812u  214.3042u   19.7987u
  gmb      449.9718u  449.9718u  431.9028u  431.9028u  747.7468u  193.9524u
  cdtot    102.0668f  102.0668f  218.4678f  218.4678f  559.0424f  128.1977f
  cgtot    304.2391f  304.2391f  533.9290f  533.9290f    2.2862p  567.4123f
  cstot    217.8867f  217.8867f  420.1913f  420.1913f    1.3641p  342.4238f
  cbtot    160.4392f  160.4392f  362.6777f  362.6777f  884.9101f  215.8308f
  cgs      259.5831f  259.5831f  475.9389f  475.9389f    2.0847p  522.2227f
  cgd       44.3964f   44.3964f   69.3243f   69.3243f  210.8537f   47.0532f



 ******  
 nmos

  ******  ac analysis tnom=  25.000 temp=  25.000 *****

          ***** job concluded
1****** HSPICE -- F-2011.09-SP2 32-BIT (Feb 27 2012) linux ******               
 ******  
 nmos

  ******  ac analysis tnom=  25.000 temp=  25.000 *****
 ***** operating point status is all       simulation time is     0.     

   *** parameter vic =    3.000E-01 ***

    node    =voltage      node    =voltage      node    =voltage

 +0:b       =-709.1635m 0:g34     = 445.5059m 0:g56     =-477.9546m
 +0:vcc     = 900.0000m 0:vdd     =-900.0000m 0:vin1    =-235.0000m
 +0:vin2    =-235.0000m 0:vout    = 445.5059m


 **** voltage sources

 subckt                                              
 element  0:vcc1     0:vdd1     0:vin1x    0:vin2x   
  volts    900.0000m -900.0000m -235.0000m -235.0000m
  current -780.2095u  780.2095u    0.         0.     
  power    702.1886u  702.1886u    0.         0.     

     total voltage source power dissipation=    1.4044m       watts



 **** resistors

 subckt             
 element  0:r1      
  r value    8.5600k
  v drop     1.3780 
  current  160.9760u
  power    221.8176u



 **** mosfets


 subckt                                                                    
 element  0:m1       0:m2       0:m3       0:m4       0:m5       0:m6      
 model    0:n_18     0:n_18     0:p_18     0:p_18     0:n_18     0:n_18    
 region     Saturati   Saturati   Saturati   Saturati   Saturati   Saturati
  id       309.6167u  309.6167u -309.6167u -309.6167u  619.2335u  160.9760u
  ibs        0.         0.         0.         0.         0.         0.     
  ibd        0.         0.         0.         0.         0.         0.     
  vgs      474.1635m  474.1635m -454.4941m -454.4941m  422.0454m  422.0454m
  vds        1.1547     1.1547  -454.4941m -454.4941m  190.8365m  422.0454m
  vbs      709.1635m  709.1635m -900.0000m -900.0000m  900.0000m  900.0000m
  vth      294.3444m  294.3444m -246.7676m -246.7676m  232.2481m  230.7807m
  vdsat    114.3876m  114.3876m -144.6249m -144.6249m  111.7297m  112.5946m
  vod      179.8191m  179.8191m -207.7265m -207.7265m  189.7973m  191.2648m
  beta      33.6232m   33.6232m   21.1176m   21.1176m   69.9878m   17.5143m
  gam eff  595.5575m  595.5575m  545.6505m  545.6505m  595.7658m  595.7612m
  gm         3.7856m    3.7856m    2.9633m    2.9633m    7.5049m    1.9555m
  gds       37.6955u   37.6955u   42.7812u   42.7812u  214.3042u   19.7987u
  gmb      449.9718u  449.9718u  431.9028u  431.9028u  747.7468u  193.9524u
  cdtot    102.0668f  102.0668f  218.4678f  218.4678f  559.0424f  128.1977f
  cgtot    304.2391f  304.2391f  533.9290f  533.9290f    2.2862p  567.4123f
  cstot    217.8867f  217.8867f  420.1913f  420.1913f    1.3641p  342.4238f
  cbtot    160.4392f  160.4392f  362.6777f  362.6777f  884.9101f  215.8308f
  cgs      259.5831f  259.5831f  475.9389f  475.9389f    2.0847p  522.2227f
  cgd       44.3964f   44.3964f   69.3243f   69.3243f  210.8537f   47.0532f



 ******  
 nmos

  ******  ac analysis tnom=  25.000 temp=  25.000 *****

          ***** job concluded
1****** HSPICE -- F-2011.09-SP2 32-BIT (Feb 27 2012) linux ******               
 ******  
 nmos

  ******  ac analysis tnom=  25.000 temp=  25.000 *****
 ***** operating point status is all       simulation time is     0.     

   *** parameter vic =    4.000E-01 ***

    node    =voltage      node    =voltage      node    =voltage

 +0:b       =-709.1635m 0:g34     = 445.5059m 0:g56     =-477.9546m
 +0:vcc     = 900.0000m 0:vdd     =-900.0000m 0:vin1    =-235.0000m
 +0:vin2    =-235.0000m 0:vout    = 445.5059m


 **** voltage sources

 subckt                                              
 element  0:vcc1     0:vdd1     0:vin1x    0:vin2x   
  volts    900.0000m -900.0000m -235.0000m -235.0000m
  current -780.2095u  780.2095u    0.         0.     
  power    702.1886u  702.1886u    0.         0.     

     total voltage source power dissipation=    1.4044m       watts



 **** resistors

 subckt             
 element  0:r1      
  r value    8.5600k
  v drop     1.3780 
  current  160.9760u
  power    221.8176u



 **** mosfets


 subckt                                                                    
 element  0:m1       0:m2       0:m3       0:m4       0:m5       0:m6      
 model    0:n_18     0:n_18     0:p_18     0:p_18     0:n_18     0:n_18    
 region     Saturati   Saturati   Saturati   Saturati   Saturati   Saturati
  id       309.6167u  309.6167u -309.6167u -309.6167u  619.2335u  160.9760u
  ibs        0.         0.         0.         0.         0.         0.     
  ibd        0.         0.         0.         0.         0.         0.     
  vgs      474.1635m  474.1635m -454.4941m -454.4941m  422.0454m  422.0454m
  vds        1.1547     1.1547  -454.4941m -454.4941m  190.8365m  422.0454m
  vbs      709.1635m  709.1635m -900.0000m -900.0000m  900.0000m  900.0000m
  vth      294.3444m  294.3444m -246.7676m -246.7676m  232.2481m  230.7807m
  vdsat    114.3876m  114.3876m -144.6249m -144.6249m  111.7297m  112.5946m
  vod      179.8191m  179.8191m -207.7265m -207.7265m  189.7973m  191.2648m
  beta      33.6232m   33.6232m   21.1176m   21.1176m   69.9878m   17.5143m
  gam eff  595.5575m  595.5575m  545.6505m  545.6505m  595.7658m  595.7612m
  gm         3.7856m    3.7856m    2.9633m    2.9633m    7.5049m    1.9555m
  gds       37.6955u   37.6955u   42.7812u   42.7812u  214.3042u   19.7987u
  gmb      449.9718u  449.9718u  431.9028u  431.9028u  747.7468u  193.9524u
  cdtot    102.0668f  102.0668f  218.4678f  218.4678f  559.0424f  128.1977f
  cgtot    304.2391f  304.2391f  533.9290f  533.9290f    2.2862p  567.4123f
  cstot    217.8867f  217.8867f  420.1913f  420.1913f    1.3641p  342.4238f
  cbtot    160.4392f  160.4392f  362.6777f  362.6777f  884.9101f  215.8308f
  cgs      259.5831f  259.5831f  475.9389f  475.9389f    2.0847p  522.2227f
  cgd       44.3964f   44.3964f   69.3243f   69.3243f  210.8537f   47.0532f



 ******  
 nmos

  ******  ac analysis tnom=  25.000 temp=  25.000 *****

          ***** job concluded
1****** HSPICE -- F-2011.09-SP2 32-BIT (Feb 27 2012) linux ******               
 ******  
 nmos

  ******  ac analysis tnom=  25.000 temp=  25.000 *****
 ***** operating point status is all       simulation time is     0.     

   *** parameter vic =    5.000E-01 ***

    node    =voltage      node    =voltage      node    =voltage

 +0:b       =-709.1635m 0:g34     = 445.5059m 0:g56     =-477.9546m
 +0:vcc     = 900.0000m 0:vdd     =-900.0000m 0:vin1    =-235.0000m
 +0:vin2    =-235.0000m 0:vout    = 445.5059m


 **** voltage sources

 subckt                                              
 element  0:vcc1     0:vdd1     0:vin1x    0:vin2x   
  volts    900.0000m -900.0000m -235.0000m -235.0000m
  current -780.2095u  780.2095u    0.         0.     
  power    702.1886u  702.1886u    0.         0.     

     total voltage source power dissipation=    1.4044m       watts



 **** resistors

 subckt             
 element  0:r1      
  r value    8.5600k
  v drop     1.3780 
  current  160.9760u
  power    221.8176u



 **** mosfets


 subckt                                                                    
 element  0:m1       0:m2       0:m3       0:m4       0:m5       0:m6      
 model    0:n_18     0:n_18     0:p_18     0:p_18     0:n_18     0:n_18    
 region     Saturati   Saturati   Saturati   Saturati   Saturati   Saturati
  id       309.6167u  309.6167u -309.6167u -309.6167u  619.2335u  160.9760u
  ibs        0.         0.         0.         0.         0.         0.     
  ibd        0.         0.         0.         0.         0.         0.     
  vgs      474.1635m  474.1635m -454.4941m -454.4941m  422.0454m  422.0454m
  vds        1.1547     1.1547  -454.4941m -454.4941m  190.8365m  422.0454m
  vbs      709.1635m  709.1635m -900.0000m -900.0000m  900.0000m  900.0000m
  vth      294.3444m  294.3444m -246.7676m -246.7676m  232.2481m  230.7807m
  vdsat    114.3876m  114.3876m -144.6249m -144.6249m  111.7297m  112.5946m
  vod      179.8191m  179.8191m -207.7265m -207.7265m  189.7973m  191.2648m
  beta      33.6232m   33.6232m   21.1176m   21.1176m   69.9878m   17.5143m
  gam eff  595.5575m  595.5575m  545.6505m  545.6505m  595.7658m  595.7612m
  gm         3.7856m    3.7856m    2.9633m    2.9633m    7.5049m    1.9555m
  gds       37.6955u   37.6955u   42.7812u   42.7812u  214.3042u   19.7987u
  gmb      449.9718u  449.9718u  431.9028u  431.9028u  747.7468u  193.9524u
  cdtot    102.0668f  102.0668f  218.4678f  218.4678f  559.0424f  128.1977f
  cgtot    304.2391f  304.2391f  533.9290f  533.9290f    2.2862p  567.4123f
  cstot    217.8867f  217.8867f  420.1913f  420.1913f    1.3641p  342.4238f
  cbtot    160.4392f  160.4392f  362.6777f  362.6777f  884.9101f  215.8308f
  cgs      259.5831f  259.5831f  475.9389f  475.9389f    2.0847p  522.2227f
  cgd       44.3964f   44.3964f   69.3243f   69.3243f  210.8537f   47.0532f



 ******  
 nmos

  ******  ac analysis tnom=  25.000 temp=  25.000 *****

          ***** job concluded
1****** HSPICE -- F-2011.09-SP2 32-BIT (Feb 27 2012) linux ******               
 ******  
 nmos

  ******  job statistics summary tnom=  25.000 temp=  25.000 *****
  
  
 ******  Machine Information  ******
 CPU:
 model name	: Intel(R) Xeon(R) CPU E3-1240 V2 @ 3.40GHz
 cpu MHz	: 1600.000
  
 OS:
 Linux version 2.6.32-358.23.2.el6.x86_64 (mockbuild@c6b9.bsys.dev.centos.org) (
 gcc version 4.4.7 20120313 (Red Hat 4.4.7-3) (GCC) ) #1 SMP Wed Oct 16 18:37:12
  UTC 2013


  ******  HSPICE Threads Information  ******

  Command Line Threads Count :     1
  Available CPU Count        :     8
  Actual Threads Count       :     1


  ******  Circuit Statistics  ******
  # nodes       =      10 # elements   =      13
  # resistors   =       1 # capacitors =       1 # inductors   =       0
  # mutual_inds =       0 # vccs       =       0 # vcvs        =       0
  # cccs        =       0 # ccvs       =       0 # volt_srcs   =       5
  # curr_srcs   =       0 # diodes     =       0 # bjts        =       0
  # jfets       =       0 # mosfets    =       6 # U elements  =       0
  # T elements  =       0 # W elements =       0 # B elements  =       0
  # S elements  =       0 # P elements =       0 # va device   =       0
  # vector_srcs =       0


  ******  Runtime Statistics (seconds)  ******

  analysis           time    # points   tot. iter  conv.iter
  op point           0.00           1          45
  ac analysis        0.04         601       10512
  readin             0.01
  errchk             0.00
  setup              0.00
  output             0.00


           peak memory used         95.67 megabytes
           total cpu time            0.05 seconds
           total elapsed time        0.43 seconds
           job started at     15:07:41 12/03/2013
           job ended   at     15:07:42 12/03/2013


 lic: Release hspice token(s) 
