Using: /usr/local/apps/synopsys/current_hspice/hspice/linux/hspice nmos_diff_rload.sp
 ****** HSPICE -- F-2011.09-SP2 32-BIT (Feb 27 2012) linux ******               
  Copyright (C) 2011 Synopsys, Inc. All Rights Reserved.                        
  Unpublished-rights reserved under US copyright laws.
  This program is protected by law and is subject to the
  terms and conditions of the license agreement from Synopsys.
  Use of this program is your acceptance to be bound by the
  license agreement. HSPICE is the trademark of Synopsys, Inc.
  Input File: nmos_diff_rload.sp                                                
  Command line options: nmos_diff_rload.sp
 lic:  
 lic: FLEXlm: v10.8 
 lic: USER:   goynese              HOSTNAME: kec1130-14.engr.oregonstate.edu 
 lic: HOSTID: 24be0511c109         PID:      8843 
 lic: Using FLEXlm license file: 
 lic: 7188@license.eecs.oregonstate.edu 
 lic: Checkout 1 hspice 
 lic: License/Maintenance for hspice will expire on 11-aug-2014/2013.03 
 lic: 2(in_use)/50(total) FLOATING license(s) on SERVER license.eecs.oregonstate
 lic:   
 Init: read install configuration file: /usr/local/apps/synopsys/current_hspice/hspice/meta.cfg
1****** HSPICE -- F-2011.09-SP2 32-BIT (Feb 27 2012) linux ******               
 ******  
 .title nmos

  ******  mos   model parameters tnom=  25.000 temp=  25.000 *****
 ***************************************************************************
 ***        model parameters  model name:   0:n_18     model type:nmos   ***
 ***************************************************************************

   *** general parameters ***
    deriv=   0.           

   ***  level 49  model parameters  ***

      hspver=    2006.03               level=         49         
     version=        3.1            paramchk=          0         
      apwarn=          1                lite=          0         
      vgslim=          0             binUnit=          1         
      capMod=          2               xpart=        0.5         
      mobMod=          1              nqsMod=          0         
      stiMod=          0                 elm=          5         
    sfvtflag=          0                 tox=    4.1e-09 meter   
          xj=      1e-07 meter       binflag=          0         
        lmin=          0 meter          lmax=          0 meter   
        wmin=          0 meter          wmax=          0 meter   
        lref=          0 meter          wref=          0 meter   
        lint=7.65986e-09 meter          wint=          0 meter   
       lmult=          1               wmult=          1         
          ll=          0                 lln=          1         
          lw=          0                 lwn=          1         
         lwl=          0                  wl=          0         
         wln=          1                  ww=          0         
         wwn=          1                 wwl=          0         
         dwg=-1.17694e-08 m/V             dwb=1.96583e-08 m/V^1/2 
          xl=          0                  xw=     -1e-08         
          a0=          2                 ags=   0.428182 V^-1    
          b0=-4.43566e-09 meter            b1=     -1e-07 meter   
        keta=-0.00873409 V^-1           voff= -0.0909514 V       
       ngate=          0 cm^-3           vbx=          0 V       
         vbm=         -3 V                xt=   1.55e-07 meter   
        vth0=   0.376033 V               nch= 2.3549e+17 cm^-3   
        nsub=      6e+16 cm^-3           nlx=1.83658e-07 meter   
      gamma1=          0 V^-1/2       gamma2=          0 V^-1/2  
          k1=   0.598252 V^1/2            k2= 0.00204285         
          k3=      0.001                 k3b=    5.47338 V^-1    
          w0=      1e-07 meter          dvt0=    1.38283         
        dvt1=   0.374633                dvt2=  0.0524724 V^-1    
       dvt0w=          0 meter^-1      dvt1w=          0 meter^-1
       dvt2w=          0 V^-1           dsub= 0.00880778         
        eta0=  0.0029649                etab=9.02839e-05 V^-1    
          u0=    265.099 cm^2/V/sec         ua=-1.34288e-09 m/V     
          ub=2.21876e-18 (m/V)^2          uc=5.30227e-11 V^-1    
        vsat=      99674 m/sec            a1=0.000117788 v^-1    
          a2=          1               delta=       0.01 V       
        rdsw=        150 ohm-um         prwg=        0.5 V^-1    
        prwb=       -0.2 V^-1/2           wr=          1         
        pclm=   0.739383             pdiblc1=   0.240506         
     pdiblc2= 0.00238467             pdiblcb=       -0.1 V^-1    
      pscbe1=2.25061e+09 V/m          pscbe2=5.50405e-09 V/m     
       drout=   0.810147                pvag= 0.00820885         
     nfactor=    2.47421                cdsc=    0.00024 f/m^2   
       cdscb=          0 f/V/m^2       cdscd=          0 f/V/m^2 
         cit=          0 f/m^2        alpha0=          0 m/V     
       beta0=         30 V               dlc=7.65986e-09 meter   
         dwc=          0 meter           clc=      1e-07 meter   
         cle=        0.6                cgso=   7.68e-10 f/m     
        cgdo=   7.68e-10 f/m            cgbo=      1e-12 f/m     
        cgsl=          0 f/m            cgdl=          0 f/m     
      ckappa=        0.6                  cf=          0 f/m     
        tnom=     300.15 K               kt1=      -0.11 V       
        kt1l=          0                 kt2=      0.022         
         ute=       -1.5                 ua1=   4.31e-09 m/V     
         ub1=  -7.61e-18 (m/V)^2         uc1=   -5.6e-11 m/V^2   
          at=      33000 m/s             prt=          0         
         using Berkeley noise model       noiMod=          1         
        noia=      1e+20                noib=      50000         
        noic=   -1.4e-12                  em=    4.1e+07         
          ef=          1                  af=          1         
          kf=          0              gdsnoi=-1.23457e-29         
         using Hspice diodes            using ACM 
         acm=         0                 hdif=         0 meter    
        ldif=         0 meter             js=         0 amp/m^2  
         jsw=         0 amp/m            xti=         0          
           n=         1                   cj=0.00096236 f/m^2    
          mj=  0.380501                   pb=       0.8 V        
        cjsw=2.37186e-10 f/m             mjsw=  0.107791          
         php=       0.8 V               pbsw (not used)           
      cjgate=2.37186e-10 f/m            cjswg (not used)           
       mjswg (not used)                 pbswg (not used)           
       lketa=-0.00944713               wketa= 0.00500085         
       pketa=-0.00308008               pvth0=-0.000919017         
         pk2=0.000320258               peta0=9.33065e-05         
         pu0=    32.7094                 pua=1.35883e-10         
       pvsat=    2004.06               prdsw=         -5         
 

  
      
 *****************************************************************
 ******  option summary
 ******
 runlvl  = 3         bypass  = 2         
1****** HSPICE -- F-2011.09-SP2 32-BIT (Feb 27 2012) linux ******               
 ******  
 .title nmos

  ******  operating point information tnom=  25.000 temp=  25.000 *****
 ***** operating point status is all       simulation time is     0.     
    node    =voltage      node    =voltage      node    =voltage

 +0:nin1    = 900.0000m 0:nin2    = 900.0000m 0:nout1   =   1.7000 
 +0:nout2   =   1.7000  0:vdd     =   1.8000  0:vs      = 322.5072m


 **** voltage sources

 subckt                                   
 element  0:vds      0:vin1     0:vin2    
  volts      1.8000   900.0000m  900.0000m
  current -200.0000u    0.         0.     
  power    360.0000u    0.         0.     

     total voltage source power dissipation=  360.0000u       watts



 **** current sources

 subckt             
 element  0:iss     
  volts    322.5072m
  current  200.0000u
  power    -64.5014u


     total current source power dissipation= -64.5014u       watts

 **** resistors

 subckt                        
 element  0:r1       0:r2      
  r value    1.0000k    1.0000k
  v drop   100.0000m  100.0000m
  current  100.0000u  100.0000u
  power     10.0000u   10.0000u



 **** mosfets


 subckt                        
 element  0:m1       0:m2      
 model    0:n_18     0:n_18    
 region     Saturati   Saturati
  id       100.0000u  100.0000u
  ibs        0.         0.     
  ibd        0.         0.     
  vgs      577.4928m  577.4928m
  vds        1.3775     1.3775 
  vbs     -322.5072m -322.5072m
  vth      573.0366m  573.0366m
  vdsat     57.0518m   57.0518m
  vod        4.4562m    4.4562m
  beta      93.5195m   93.5195m
  gam eff  593.7483m  593.7483m
  gm         2.1506m    2.1506m
  gds       43.0462u   43.0462u
  gmb      500.4879u  500.4879u
  cdtot     93.7912f   93.7912f
  cgtot    143.7886f  143.7886f
  cstot    125.0458f  125.0458f
  cbtot    127.5372f  127.5372f
  cgs       84.9712f   84.9712f
  cgd       45.6437f   45.6437f



 ***************************************************
   ******   pole/zero analysis  
  
  
    input =  0:vin1          output = v(nout1)
  
       poles (rad/sec)                 poles ( hertz)
 real            imag            real            imag            
 -912.343x       0.              -145.204x       0.              
 -953.606x       0.              -151.771x       0.              
 -21.5900g       0.              -3.43615g       0.              
  
       zeros (rad/sec)                 zeros ( hertz)
 real            imag            real            imag            
 -912.458x       0.              -145.222x       0.              
 -17.6346g       0.              -2.80663g       0.              
 22.9430g        0.              3.65149g        0.              
  
  ***** constant factor = 524.545u
 ******  
 .title nmos

  ******  ac analysis tnom=  25.000 temp=  25.000 *****
x

        freq    volt db    
                   nout1   
                   nout2   
    1.00000k      6.2852   
    1.02329k      6.2852   
    1.04713k      6.2852   
    1.07152k      6.2852   
    1.09648k      6.2852   
    1.12202k      6.2852   
    1.14815k      6.2852   
    1.17490k      6.2852   
    1.20226k      6.2852   
    1.23027k      6.2852   
    1.25893k      6.2852   
    1.28825k      6.2852   
    1.31826k      6.2852   
    1.34896k      6.2852   
    1.38038k      6.2852   
    1.41254k      6.2852   
    1.44544k      6.2852   
    1.47911k      6.2852   
    1.51356k      6.2852   
    1.54882k      6.2852   
    1.58489k      6.2852   
    1.62181k      6.2852   
    1.65959k      6.2852   
    1.69824k      6.2852   
    1.73780k      6.2852   
    1.77828k      6.2852   
    1.81970k      6.2852   
    1.86209k      6.2852   
    1.90546k      6.2852   
    1.94984k      6.2852   
    1.99526k      6.2852   
    2.04174k      6.2852   
    2.08930k      6.2852   
    2.13796k      6.2852   
    2.18776k      6.2852   
    2.23872k      6.2852   
    2.29087k      6.2852   
    2.34423k      6.2852   
    2.39883k      6.2852   
    2.45471k      6.2852   
    2.51189k      6.2852   
    2.57040k      6.2852   
    2.63027k      6.2852   
    2.69153k      6.2852   
    2.75423k      6.2852   
    2.81838k      6.2852   
    2.88403k      6.2852   
    2.95121k      6.2852   
    3.01995k      6.2852   
    3.09030k      6.2852   
    3.16228k      6.2852   
    3.23594k      6.2852   
    3.31131k      6.2852   
    3.38844k      6.2852   
    3.46737k      6.2852   
    3.54813k      6.2852   
    3.63078k      6.2852   
    3.71535k      6.2852   
    3.80189k      6.2852   
    3.89045k      6.2852   
    3.98107k      6.2852   
    4.07380k      6.2852   
    4.16869k      6.2852   
    4.26580k      6.2852   
    4.36516k      6.2852   
    4.46684k      6.2852   
    4.57088k      6.2852   
    4.67735k      6.2852   
    4.78630k      6.2852   
    4.89779k      6.2852   
    5.01187k      6.2852   
    5.12861k      6.2852   
    5.24807k      6.2852   
    5.37032k      6.2852   
    5.49541k      6.2852   
    5.62341k      6.2852   
    5.75440k      6.2852   
    5.88844k      6.2852   
    6.02560k      6.2852   
    6.16595k      6.2852   
    6.30957k      6.2852   
    6.45654k      6.2852   
    6.60693k      6.2852   
    6.76083k      6.2852   
    6.91831k      6.2852   
    7.07946k      6.2852   
    7.24436k      6.2852   
    7.41310k      6.2852   
    7.58578k      6.2852   
    7.76247k      6.2852   
    7.94328k      6.2852   
    8.12831k      6.2852   
    8.31764k      6.2852   
    8.51138k      6.2852   
    8.70964k      6.2852   
    8.91251k      6.2852   
    9.12011k      6.2852   
    9.33254k      6.2852   
    9.54993k      6.2852   
    9.77237k      6.2852   
   10.00000k      6.2852   
   10.23293k      6.2852   
   10.47129k      6.2852   
   10.71519k      6.2852   
   10.96478k      6.2852   
   11.22018k      6.2852   
   11.48154k      6.2852   
   11.74898k      6.2852   
   12.02264k      6.2852   
   12.30269k      6.2852   
   12.58925k      6.2852   
   12.88250k      6.2852   
   13.18257k      6.2852   
   13.48963k      6.2852   
   13.80384k      6.2852   
   14.12538k      6.2852   
   14.45440k      6.2852   
   14.79108k      6.2852   
   15.13561k      6.2852   
   15.48817k      6.2852   
   15.84893k      6.2852   
   16.21810k      6.2852   
   16.59587k      6.2852   
   16.98244k      6.2852   
   17.37801k      6.2852   
   17.78279k      6.2852   
   18.19701k      6.2852   
   18.62087k      6.2852   
   19.05461k      6.2852   
   19.49845k      6.2852   
   19.95262k      6.2852   
   20.41738k      6.2852   
   20.89296k      6.2852   
   21.37962k      6.2852   
   21.87762k      6.2852   
   22.38721k      6.2852   
   22.90868k      6.2852   
   23.44229k      6.2852   
   23.98833k      6.2852   
   24.54709k      6.2852   
   25.11886k      6.2852   
   25.70396k      6.2852   
   26.30268k      6.2852   
   26.91535k      6.2852   
   27.54229k      6.2852   
   28.18383k      6.2852   
   28.84032k      6.2852   
   29.51209k      6.2852   
   30.19952k      6.2852   
   30.90295k      6.2852   
   31.62278k      6.2852   
   32.35937k      6.2852   
   33.11311k      6.2852   
   33.88442k      6.2852   
   34.67369k      6.2852   
   35.48134k      6.2852   
   36.30781k      6.2852   
   37.15352k      6.2852   
   38.01894k      6.2852   
   38.90451k      6.2852   
   39.81072k      6.2852   
   40.73803k      6.2852   
   41.68694k      6.2852   
   42.65795k      6.2852   
   43.65158k      6.2852   
   44.66836k      6.2852   
   45.70882k      6.2852   
   46.77351k      6.2852   
   47.86301k      6.2852   
   48.97788k      6.2852   
   50.11872k      6.2852   
   51.28614k      6.2852   
   52.48075k      6.2852   
   53.70318k      6.2852   
   54.95409k      6.2852   
   56.23413k      6.2852   
   57.54399k      6.2852   
   58.88437k      6.2852   
   60.25596k      6.2852   
   61.65950k      6.2852   
   63.09573k      6.2852   
   64.56542k      6.2852   
   66.06934k      6.2852   
   67.60830k      6.2852   
   69.18310k      6.2852   
   70.79458k      6.2852   
   72.44360k      6.2852   
   74.13102k      6.2852   
   75.85776k      6.2852   
   77.62471k      6.2852   
   79.43282k      6.2852   
   81.28305k      6.2852   
   83.17638k      6.2852   
   85.11380k      6.2852   
   87.09636k      6.2852   
   89.12509k      6.2852   
   91.20108k      6.2852   
   93.32543k      6.2852   
   95.49926k      6.2852   
   97.72372k      6.2852   
  100.00000k      6.2852   
  102.32930k      6.2852   
  104.71285k      6.2852   
  107.15193k      6.2852   
  109.64782k      6.2852   
  112.20185k      6.2852   
  114.81536k      6.2852   
  117.48976k      6.2852   
  120.22644k      6.2852   
  123.02688k      6.2852   
  125.89254k      6.2852   
  128.82496k      6.2852   
  131.82567k      6.2852   
  134.89629k      6.2852   
  138.03843k      6.2852   
  141.25375k      6.2852   
  144.54398k      6.2852   
  147.91084k      6.2852   
  151.35612k      6.2852   
  154.88166k      6.2852   
  158.48932k      6.2852   
  162.18101k      6.2852   
  165.95869k      6.2852   
  169.82437k      6.2852   
  173.78008k      6.2852   
  177.82794k      6.2852   
  181.97009k      6.2852   
  186.20871k      6.2852   
  190.54607k      6.2852   
  194.98446k      6.2852   
  199.52623k      6.2852   
  204.17379k      6.2852   
  208.92961k      6.2852   
  213.79621k      6.2852   
  218.77616k      6.2852   
  223.87211k      6.2852   
  229.08677k      6.2852   
  234.42288k      6.2852   
  239.88329k      6.2852   
  245.47089k      6.2852   
  251.18864k      6.2852   
  257.03958k      6.2852   
  263.02680k      6.2852   
  269.15348k      6.2852   
  275.42287k      6.2852   
  281.83829k      6.2852   
  288.40315k      6.2852   
  295.12092k      6.2852   
  301.99517k      6.2852   
  309.02954k      6.2852   
  316.22777k      6.2852   
  323.59366k      6.2852   
  331.13112k      6.2852   
  338.84416k      6.2852   
  346.73685k      6.2852   
  354.81339k      6.2852   
  363.07805k      6.2852   
  371.53523k      6.2852   
  380.18940k      6.2852   
  389.04514k      6.2852   
  398.10717k      6.2852   
  407.38028k      6.2852   
  416.86938k      6.2852   
  426.57952k      6.2852   
  436.51583k      6.2852   
  446.68359k      6.2852   
  457.08819k      6.2852   
  467.73514k      6.2852   
  478.63009k      6.2852   
  489.77882k      6.2852   
  501.18723k      6.2852   
  512.86138k      6.2852   
  524.80746k      6.2852   
  537.03180k      6.2852   
  549.54087k      6.2852   
  562.34133k      6.2852   
  575.43994k      6.2852   
  588.84366k      6.2852   
  602.55959k      6.2852   
  616.59500k      6.2851   
  630.95734k      6.2851   
  645.65423k      6.2851   
  660.69345k      6.2851   
  676.08298k      6.2851   
  691.83097k      6.2851   
  707.94578k      6.2851   
  724.43596k      6.2851   
  741.31024k      6.2851   
  758.57758k      6.2851   
  776.24712k      6.2851   
  794.32823k      6.2851   
  812.83052k      6.2851   
  831.76377k      6.2851   
  851.13804k      6.2851   
  870.96359k      6.2851   
  891.25094k      6.2851   
  912.01084k      6.2851   
  933.25430k      6.2851   
  954.99259k      6.2850   
  977.23722k      6.2850   
    1.00000x      6.2850   
    1.02329x      6.2850   
    1.04713x      6.2850   
    1.07152x      6.2850   
    1.09648x      6.2850   
    1.12202x      6.2850   
    1.14815x      6.2850   
    1.17490x      6.2850   
    1.20226x      6.2849   
    1.23027x      6.2849   
    1.25893x      6.2849   
    1.28825x      6.2849   
    1.31826x      6.2849   
    1.34896x      6.2849   
    1.38038x      6.2849   
    1.41254x      6.2848   
    1.44544x      6.2848   
    1.47911x      6.2848   
    1.51356x      6.2848   
    1.54882x      6.2848   
    1.58489x      6.2847   
    1.62181x      6.2847   
    1.65959x      6.2847   
    1.69824x      6.2847   
    1.73780x      6.2847   
    1.77828x      6.2846   
    1.81970x      6.2846   
    1.86209x      6.2846   
    1.90546x      6.2845   
    1.94984x      6.2845   
    1.99526x      6.2845   
    2.04174x      6.2844   
    2.08930x      6.2844   
    2.13796x      6.2844   
    2.18776x      6.2843   
    2.23872x      6.2843   
    2.29087x      6.2842   
    2.34423x      6.2842   
    2.39883x      6.2841   
    2.45471x      6.2841   
    2.51189x      6.2840   
    2.57040x      6.2840   
    2.63027x      6.2839   
    2.69153x      6.2839   
    2.75423x      6.2838   
    2.81838x      6.2837   
    2.88403x      6.2837   
    2.95121x      6.2836   
    3.01995x      6.2835   
    3.09030x      6.2834   
    3.16228x      6.2833   
    3.23594x      6.2832   
    3.31131x      6.2832   
    3.38844x      6.2831   
    3.46737x      6.2830   
    3.54813x      6.2828   
    3.63078x      6.2827   
    3.71535x      6.2826   
    3.80189x      6.2825   
    3.89045x      6.2824   
    3.98107x      6.2822   
    4.07380x      6.2821   
    4.16869x      6.2819   
    4.26580x      6.2818   
    4.36516x      6.2816   
    4.46684x      6.2815   
    4.57088x      6.2813   
    4.67735x      6.2811   
    4.78630x      6.2809   
    4.89779x      6.2807   
    5.01187x      6.2805   
    5.12861x      6.2803   
    5.24807x      6.2800   
    5.37032x      6.2798   
    5.49541x      6.2795   
    5.62341x      6.2793   
    5.75440x      6.2790   
    5.88844x      6.2787   
    6.02560x      6.2784   
    6.16595x      6.2781   
    6.30957x      6.2777   
    6.45654x      6.2774   
    6.60693x      6.2770   
    6.76083x      6.2766   
    6.91831x      6.2762   
    7.07946x      6.2758   
    7.24436x      6.2753   
    7.41310x      6.2749   
    7.58578x      6.2744   
    7.76247x      6.2739   
    7.94328x      6.2734   
    8.12831x      6.2728   
    8.31764x      6.2722   
    8.51138x      6.2716   
    8.70964x      6.2710   
    8.91251x      6.2703   
    9.12011x      6.2696   
    9.33254x      6.2688   
    9.54993x      6.2681   
    9.77237x      6.2673   
   10.00000x      6.2664   
   10.23293x      6.2655   
   10.47129x      6.2646   
   10.71519x      6.2636   
   10.96478x      6.2626   
   11.22018x      6.2616   
   11.48154x      6.2605   
   11.74898x      6.2593   
   12.02264x      6.2581   
   12.30269x      6.2568   
   12.58925x      6.2555   
   12.88250x      6.2541   
   13.18257x      6.2526   
   13.48963x      6.2511   
   13.80384x      6.2495   
   14.12538x      6.2478   
   14.45440x      6.2460   
   14.79108x      6.2442   
   15.13561x      6.2423   
   15.48817x      6.2403   
   15.84893x      6.2382   
   16.21810x      6.2359   
   16.59587x      6.2336   
   16.98244x      6.2312   
   17.37801x      6.2287   
   17.78279x      6.2261   
   18.19701x      6.2233   
   18.62087x      6.2204   
   19.05461x      6.2174   
   19.49845x      6.2142   
   19.95262x      6.2109   
   20.41738x      6.2074   
   20.89296x      6.2038   
   21.37962x      6.2000   
   21.87762x      6.1960   
   22.38721x      6.1918   
   22.90868x      6.1875   
   23.44229x      6.1829   
   23.98833x      6.1781   
   24.54709x      6.1732   
   25.11886x      6.1680   
   25.70396x      6.1625   
   26.30268x      6.1568   
   26.91535x      6.1508   
   27.54229x      6.1446   
   28.18383x      6.1381   
   28.84032x      6.1313   
   29.51209x      6.1242   
   30.19952x      6.1167   
   30.90295x      6.1089   
   31.62278x      6.1008   
   32.35937x      6.0923   
   33.11311x      6.0834   
   33.88442x      6.0741   
   34.67369x      6.0644   
   35.48134x      6.0543   
   36.30781x      6.0437   
   37.15352x      6.0327   
   38.01894x      6.0211   
   38.90451x      6.0091   
   39.81072x      5.9965   
   40.73803x      5.9833   
   41.68694x      5.9696   
   42.65795x      5.9553   
   43.65158x      5.9403   
   44.66836x      5.9247   
   45.70882x      5.9085   
   46.77351x      5.8915   
   47.86301x      5.8738   
   48.97788x      5.8553   
   50.11872x      5.8361   
   51.28614x      5.8160   
   52.48075x      5.7951   
   53.70318x      5.7733   
   54.95409x      5.7506   
   56.23413x      5.7270   
   57.54399x      5.7024   
   58.88437x      5.6767   
   60.25596x      5.6501   
   61.65950x      5.6223   
   63.09573x      5.5934   
   64.56542x      5.5634   
   66.06934x      5.5322   
   67.60830x      5.4997   
   69.18310x      5.4660   
   70.79458x      5.4310   
   72.44360x      5.3946   
   74.13102x      5.3568   
   75.85776x      5.3176   
   77.62471x      5.2769   
   79.43282x      5.2347   
   81.28305x      5.1910   
   83.17638x      5.1456   
   85.11380x      5.0987   
   87.09636x      5.0500   
   89.12509x      4.9997   
   91.20108x      4.9475   
   93.32543x      4.8936   
   95.49926x      4.8379   
   97.72372x      4.7803   
  100.00000x      4.7208   
  102.32930x      4.6593   
  104.71285x      4.5959   
  107.15193x      4.5305   
  109.64782x      4.4630   
  112.20185x      4.3934   
  114.81536x      4.3218   
  117.48976x      4.2480   
  120.22644x      4.1721   
  123.02688x      4.0940   
  125.89254x      4.0137   
  128.82496x      3.9311   
  131.82567x      3.8464   
  134.89629x      3.7594   
  138.03843x      3.6701   
  141.25375x      3.5785   
  144.54398x      3.4847   
  147.91084x      3.3885   
  151.35612x      3.2901   
  154.88166x      3.1894   
  158.48932x      3.0864   
  162.18101x      2.9811   
  165.95869x      2.8735   
  169.82437x      2.7636   
  173.78008x      2.6515   
  177.82794x      2.5371   
  181.97009x      2.4205   
  186.20871x      2.3017   
  190.54607x      2.1806   
  194.98446x      2.0574   
  199.52623x      1.9321   
  204.17379x      1.8046   
  208.92961x      1.6750   
  213.79621x      1.5433   
  218.77616x      1.4096   
  223.87211x      1.2739   
  229.08677x      1.1363   
  234.42288x    996.6698m  
  239.88329x    855.1648m  
  245.47089x    711.7964m  
  251.18864x    566.6045m  
  257.03958x    419.6272m  
  263.02680x    270.9048m  
  269.15348x    120.4775m  
  275.42287x    -31.6132m  
  281.83829x   -185.3266m  
  288.40315x   -340.6202m  
  295.12092x   -497.4527m  
  301.99517x   -655.7824m  
  309.02954x   -815.5667m  
  316.22777x   -976.7636m  
  323.59366x     -1.1393   
  331.13112x     -1.3032   
  338.84416x     -1.4684   
  346.73685x     -1.6348   
  354.81339x     -1.8025   
  363.07805x     -1.9713   
  371.53523x     -2.1412   
  380.18940x     -2.3122   
  389.04514x     -2.4843   
  398.10717x     -2.6574   
  407.38028x     -2.8314   
  416.86938x     -3.0064   
  426.57952x     -3.1823   
  436.51583x     -3.3590   
  446.68359x     -3.5366   
  457.08819x     -3.7150   
  467.73514x     -3.8941   
  478.63009x     -4.0739   
  489.77882x     -4.2545   
  501.18723x     -4.4357   
  512.86138x     -4.6176   
  524.80746x     -4.8000   
  537.03180x     -4.9830   
  549.54087x     -5.1666   
  562.34133x     -5.3507   
  575.43994x     -5.5352   
  588.84366x     -5.7203   
  602.55959x     -5.9057   
  616.59500x     -6.0916   
  630.95734x     -6.2778   
  645.65423x     -6.4644   
  660.69345x     -6.6514   
  676.08298x     -6.8386   
  691.83097x     -7.0262   
  707.94578x     -7.2140   
  724.43596x     -7.4020   
  741.31024x     -7.5902   
  758.57758x     -7.7787   
  776.24712x     -7.9673   
  794.32823x     -8.1560   
  812.83052x     -8.3449   
  831.76377x     -8.5339   
  851.13804x     -8.7230   
  870.96359x     -8.9121   
  891.25094x     -9.1013   
  912.01084x     -9.2905   
  933.25430x     -9.4797   
  954.99259x     -9.6688   
  977.23722x     -9.8580   
    1.00000g    -10.0470   
y

a


      freq       vdb(nout1,nout2)
 (a       )     -20.0000      -10.0000        0.           10.0000      20.0000 
                      +             +             +             +             + 
    1.0000k    6.285 -+------+------+------+------+------+-a----+------+------+-
    1.0233k    6.285  +      +      +      +      +      + a    +      +      + 
    1.0471k    6.285  +      +      +      +      +      + a    +      +      + 
    1.0715k    6.285  +      +      +      +      +      + a    +      +      + 
    1.0965k    6.285  +      +      +      +      +      + a    +      +      + 
    1.1220k    6.285  +      +      +      +      +      + a    +      +      + 
    1.1482k    6.285  +      +      +      +      +      + a    +      +      + 
    1.1749k    6.285  +      +      +      +      +      + a    +      +      + 
    1.2023k    6.285  +      +      +      +      +      + a    +      +      + 
    1.2303k    6.285  +      +      +      +      +      + a    +      +      + 
    1.2589k    6.285 -+------+------+------+------+------+-a----+------+------+-
    1.2882k    6.285  +      +      +      +      +      + a    +      +      + 
    1.3183k    6.285  +      +      +      +      +      + a    +      +      + 
    1.3490k    6.285  +      +      +      +      +      + a    +      +      + 
    1.3804k    6.285  +      +      +      +      +      + a    +      +      + 
    1.4125k    6.285  +      +      +      +      +      + a    +      +      + 
    1.4454k    6.285  +      +      +      +      +      + a    +      +      + 
    1.4791k    6.285  +      +      +      +      +      + a    +      +      + 
    1.5136k    6.285  +      +      +      +      +      + a    +      +      + 
    1.5488k    6.285  +      +      +      +      +      + a    +      +      + 
    1.5849k    6.285 -+------+------+------+------+------+-a----+------+------+-
    1.6218k    6.285  +      +      +      +      +      + a    +      +      + 
    1.6596k    6.285  +      +      +      +      +      + a    +      +      + 
    1.6982k    6.285  +      +      +      +      +      + a    +      +      + 
    1.7378k    6.285  +      +      +      +      +      + a    +      +      + 
    1.7783k    6.285  +      +      +      +      +      + a    +      +      + 
    1.8197k    6.285  +      +      +      +      +      + a    +      +      + 
    1.8621k    6.285  +      +      +      +      +      + a    +      +      + 
    1.9055k    6.285  +      +      +      +      +      + a    +      +      + 
    1.9498k    6.285  +      +      +      +      +      + a    +      +      + 
    1.9953k    6.285 -+------+------+------+------+------+-a----+------+------+-
    2.0417k    6.285  +      +      +      +      +      + a    +      +      + 
    2.0893k    6.285  +      +      +      +      +      + a    +      +      + 
    2.1380k    6.285  +      +      +      +      +      + a    +      +      + 
    2.1878k    6.285  +      +      +      +      +      + a    +      +      + 
    2.2387k    6.285  +      +      +      +      +      + a    +      +      + 
    2.2909k    6.285  +      +      +      +      +      + a    +      +      + 
    2.3442k    6.285  +      +      +      +      +      + a    +      +      + 
    2.3988k    6.285  +      +      +      +      +      + a    +      +      + 
    2.4547k    6.285  +      +      +      +      +      + a    +      +      + 
    2.5119k    6.285 -+------+------+------+------+------+-a----+------+------+-
    2.5704k    6.285  +      +      +      +      +      + a    +      +      + 
    2.6303k    6.285  +      +      +      +      +      + a    +      +      + 
    2.6915k    6.285  +      +      +      +      +      + a    +      +      + 
    2.7542k    6.285  +      +      +      +      +      + a    +      +      + 
    2.8184k    6.285  +      +      +      +      +      + a    +      +      + 
    2.8840k    6.285  +      +      +      +      +      + a    +      +      + 
    2.9512k    6.285  +      +      +      +      +      + a    +      +      + 
    3.0200k    6.285  +      +      +      +      +      + a    +      +      + 
    3.0903k    6.285  +      +      +      +      +      + a    +      +      + 
    3.1623k    6.285 -+------+------+------+------+------+-a----+------+------+-
    3.2359k    6.285  +      +      +      +      +      + a    +      +      + 
    3.3113k    6.285  +      +      +      +      +      + a    +      +      + 
    3.3884k    6.285  +      +      +      +      +      + a    +      +      + 
    3.4674k    6.285  +      +      +      +      +      + a    +      +      + 
    3.5481k    6.285  +      +      +      +      +      + a    +      +      + 
    3.6308k    6.285  +      +      +      +      +      + a    +      +      + 
    3.7154k    6.285  +      +      +      +      +      + a    +      +      + 
    3.8019k    6.285  +      +      +      +      +      + a    +      +      + 
    3.8905k    6.285  +      +      +      +      +      + a    +      +      + 
    3.9811k    6.285 -+------+------+------+------+------+-a----+------+------+-
    4.0738k    6.285  +      +      +      +      +      + a    +      +      + 
    4.1687k    6.285  +      +      +      +      +      + a    +      +      + 
    4.2658k    6.285  +      +      +      +      +      + a    +      +      + 
    4.3652k    6.285  +      +      +      +      +      + a    +      +      + 
    4.4668k    6.285  +      +      +      +      +      + a    +      +      + 
    4.5709k    6.285  +      +      +      +      +      + a    +      +      + 
    4.6774k    6.285  +      +      +      +      +      + a    +      +      + 
    4.7863k    6.285  +      +      +      +      +      + a    +      +      + 
    4.8978k    6.285  +      +      +      +      +      + a    +      +      + 
    5.0119k    6.285 -+------+------+------+------+------+-a----+------+------+-
    5.1286k    6.285  +      +      +      +      +      + a    +      +      + 
    5.2481k    6.285  +      +      +      +      +      + a    +      +      + 
    5.3703k    6.285  +      +      +      +      +      + a    +      +      + 
    5.4954k    6.285  +      +      +      +      +      + a    +      +      + 
    5.6234k    6.285  +      +      +      +      +      + a    +      +      + 
    5.7544k    6.285  +      +      +      +      +      + a    +      +      + 
    5.8884k    6.285  +      +      +      +      +      + a    +      +      + 
    6.0256k    6.285  +      +      +      +      +      + a    +      +      + 
    6.1660k    6.285  +      +      +      +      +      + a    +      +      + 
    6.3096k    6.285 -+------+------+------+------+------+-a----+------+------+-
    6.4565k    6.285  +      +      +      +      +      + a    +      +      + 
    6.6069k    6.285  +      +      +      +      +      + a    +      +      + 
    6.7608k    6.285  +      +      +      +      +      + a    +      +      + 
    6.9183k    6.285  +      +      +      +      +      + a    +      +      + 
    7.0795k    6.285  +      +      +      +      +      + a    +      +      + 
    7.2444k    6.285  +      +      +      +      +      + a    +      +      + 
    7.4131k    6.285  +      +      +      +      +      + a    +      +      + 
    7.5858k    6.285  +      +      +      +      +      + a    +      +      + 
    7.7625k    6.285  +      +      +      +      +      + a    +      +      + 
    7.9433k    6.285 -+------+------+------+------+------+-a----+------+------+-
    8.1283k    6.285  +      +      +      +      +      + a    +      +      + 
    8.3176k    6.285  +      +      +      +      +      + a    +      +      + 
    8.5114k    6.285  +      +      +      +      +      + a    +      +      + 
    8.7096k    6.285  +      +      +      +      +      + a    +      +      + 
    8.9125k    6.285  +      +      +      +      +      + a    +      +      + 
    9.1201k    6.285  +      +      +      +      +      + a    +      +      + 
    9.3325k    6.285  +      +      +      +      +      + a    +      +      + 
    9.5499k    6.285  +      +      +      +      +      + a    +      +      + 
    9.7724k    6.285  +      +      +      +      +      + a    +      +      + 
   10.0000k    6.285 -+------+------+------+------+------+-a----+------+------+-
   10.2329k    6.285  +      +      +      +      +      + a    +      +      + 
   10.4713k    6.285  +      +      +      +      +      + a    +      +      + 
   10.7152k    6.285  +      +      +      +      +      + a    +      +      + 
   10.9648k    6.285  +      +      +      +      +      + a    +      +      + 
   11.2202k    6.285  +      +      +      +      +      + a    +      +      + 
   11.4815k    6.285  +      +      +      +      +      + a    +      +      + 
   11.7490k    6.285  +      +      +      +      +      + a    +      +      + 
   12.0226k    6.285  +      +      +      +      +      + a    +      +      + 
   12.3027k    6.285  +      +      +      +      +      + a    +      +      + 
   12.5893k    6.285 -+------+------+------+------+------+-a----+------+------+-
   12.8825k    6.285  +      +      +      +      +      + a    +      +      + 
   13.1826k    6.285  +      +      +      +      +      + a    +      +      + 
   13.4896k    6.285  +      +      +      +      +      + a    +      +      + 
   13.8038k    6.285  +      +      +      +      +      + a    +      +      + 
   14.1254k    6.285  +      +      +      +      +      + a    +      +      + 
   14.4544k    6.285  +      +      +      +      +      + a    +      +      + 
   14.7911k    6.285  +      +      +      +      +      + a    +      +      + 
   15.1356k    6.285  +      +      +      +      +      + a    +      +      + 
   15.4882k    6.285  +      +      +      +      +      + a    +      +      + 
   15.8489k    6.285 -+------+------+------+------+------+-a----+------+------+-
   16.2181k    6.285  +      +      +      +      +      + a    +      +      + 
   16.5959k    6.285  +      +      +      +      +      + a    +      +      + 
   16.9824k    6.285  +      +      +      +      +      + a    +      +      + 
   17.3780k    6.285  +      +      +      +      +      + a    +      +      + 
   17.7828k    6.285  +      +      +      +      +      + a    +      +      + 
   18.1970k    6.285  +      +      +      +      +      + a    +      +      + 
   18.6209k    6.285  +      +      +      +      +      + a    +      +      + 
   19.0546k    6.285  +      +      +      +      +      + a    +      +      + 
   19.4984k    6.285  +      +      +      +      +      + a    +      +      + 
   19.9526k    6.285 -+------+------+------+------+------+-a----+------+------+-
   20.4174k    6.285  +      +      +      +      +      + a    +      +      + 
   20.8930k    6.285  +      +      +      +      +      + a    +      +      + 
   21.3796k    6.285  +      +      +      +      +      + a    +      +      + 
   21.8776k    6.285  +      +      +      +      +      + a    +      +      + 
   22.3872k    6.285  +      +      +      +      +      + a    +      +      + 
   22.9087k    6.285  +      +      +      +      +      + a    +      +      + 
   23.4423k    6.285  +      +      +      +      +      + a    +      +      + 
   23.9883k    6.285  +      +      +      +      +      + a    +      +      + 
   24.5471k    6.285  +      +      +      +      +      + a    +      +      + 
   25.1189k    6.285 -+------+------+------+------+------+-a----+------+------+-
   25.7040k    6.285  +      +      +      +      +      + a    +      +      + 
   26.3027k    6.285  +      +      +      +      +      + a    +      +      + 
   26.9153k    6.285  +      +      +      +      +      + a    +      +      + 
   27.5423k    6.285  +      +      +      +      +      + a    +      +      + 
   28.1838k    6.285  +      +      +      +      +      + a    +      +      + 
   28.8403k    6.285  +      +      +      +      +      + a    +      +      + 
   29.5121k    6.285  +      +      +      +      +      + a    +      +      + 
   30.1995k    6.285  +      +      +      +      +      + a    +      +      + 
   30.9030k    6.285  +      +      +      +      +      + a    +      +      + 
   31.6228k    6.285 -+------+------+------+------+------+-a----+------+------+-
   32.3594k    6.285  +      +      +      +      +      + a    +      +      + 
   33.1131k    6.285  +      +      +      +      +      + a    +      +      + 
   33.8844k    6.285  +      +      +      +      +      + a    +      +      + 
   34.6737k    6.285  +      +      +      +      +      + a    +      +      + 
   35.4813k    6.285  +      +      +      +      +      + a    +      +      + 
   36.3078k    6.285  +      +      +      +      +      + a    +      +      + 
   37.1535k    6.285  +      +      +      +      +      + a    +      +      + 
   38.0189k    6.285  +      +      +      +      +      + a    +      +      + 
   38.9045k    6.285  +      +      +      +      +      + a    +      +      + 
   39.8107k    6.285 -+------+------+------+------+------+-a----+------+------+-
   40.7380k    6.285  +      +      +      +      +      + a    +      +      + 
   41.6869k    6.285  +      +      +      +      +      + a    +      +      + 
   42.6580k    6.285  +      +      +      +      +      + a    +      +      + 
   43.6516k    6.285  +      +      +      +      +      + a    +      +      + 
   44.6684k    6.285  +      +      +      +      +      + a    +      +      + 
   45.7088k    6.285  +      +      +      +      +      + a    +      +      + 
   46.7735k    6.285  +      +      +      +      +      + a    +      +      + 
   47.8630k    6.285  +      +      +      +      +      + a    +      +      + 
   48.9779k    6.285  +      +      +      +      +      + a    +      +      + 
   50.1187k    6.285 -+------+------+------+------+------+-a----+------+------+-
   51.2861k    6.285  +      +      +      +      +      + a    +      +      + 
   52.4807k    6.285  +      +      +      +      +      + a    +      +      + 
   53.7032k    6.285  +      +      +      +      +      + a    +      +      + 
   54.9541k    6.285  +      +      +      +      +      + a    +      +      + 
   56.2341k    6.285  +      +      +      +      +      + a    +      +      + 
   57.5440k    6.285  +      +      +      +      +      + a    +      +      + 
   58.8844k    6.285  +      +      +      +      +      + a    +      +      + 
   60.2560k    6.285  +      +      +      +      +      + a    +      +      + 
   61.6595k    6.285  +      +      +      +      +      + a    +      +      + 
   63.0957k    6.285 -+------+------+------+------+------+-a----+------+------+-
   64.5654k    6.285  +      +      +      +      +      + a    +      +      + 
   66.0693k    6.285  +      +      +      +      +      + a    +      +      + 
   67.6083k    6.285  +      +      +      +      +      + a    +      +      + 
   69.1831k    6.285  +      +      +      +      +      + a    +      +      + 
   70.7946k    6.285  +      +      +      +      +      + a    +      +      + 
   72.4436k    6.285  +      +      +      +      +      + a    +      +      + 
   74.1310k    6.285  +      +      +      +      +      + a    +      +      + 
   75.8578k    6.285  +      +      +      +      +      + a    +      +      + 
   77.6247k    6.285  +      +      +      +      +      + a    +      +      + 
   79.4328k    6.285 -+------+------+------+------+------+-a----+------+------+-
   81.2831k    6.285  +      +      +      +      +      + a    +      +      + 
   83.1764k    6.285  +      +      +      +      +      + a    +      +      + 
   85.1138k    6.285  +      +      +      +      +      + a    +      +      + 
   87.0964k    6.285  +      +      +      +      +      + a    +      +      + 
   89.1251k    6.285  +      +      +      +      +      + a    +      +      + 
   91.2011k    6.285  +      +      +      +      +      + a    +      +      + 
   93.3254k    6.285  +      +      +      +      +      + a    +      +      + 
   95.4993k    6.285  +      +      +      +      +      + a    +      +      + 
   97.7237k    6.285  +      +      +      +      +      + a    +      +      + 
  100.0000k    6.285 -+------+------+------+------+------+-a----+------+------+-
  102.3293k    6.285  +      +      +      +      +      + a    +      +      + 
  104.7129k    6.285  +      +      +      +      +      + a    +      +      + 
  107.1519k    6.285  +      +      +      +      +      + a    +      +      + 
  109.6478k    6.285  +      +      +      +      +      + a    +      +      + 
  112.2018k    6.285  +      +      +      +      +      + a    +      +      + 
  114.8154k    6.285  +      +      +      +      +      + a    +      +      + 
  117.4898k    6.285  +      +      +      +      +      + a    +      +      + 
  120.2264k    6.285  +      +      +      +      +      + a    +      +      + 
  123.0269k    6.285  +      +      +      +      +      + a    +      +      + 
  125.8925k    6.285 -+------+------+------+------+------+-a----+------+------+-
  128.8250k    6.285  +      +      +      +      +      + a    +      +      + 
  131.8257k    6.285  +      +      +      +      +      + a    +      +      + 
  134.8963k    6.285  +      +      +      +      +      + a    +      +      + 
  138.0384k    6.285  +      +      +      +      +      + a    +      +      + 
  141.2538k    6.285  +      +      +      +      +      + a    +      +      + 
  144.5440k    6.285  +      +      +      +      +      + a    +      +      + 
  147.9108k    6.285  +      +      +      +      +      + a    +      +      + 
  151.3561k    6.285  +      +      +      +      +      + a    +      +      + 
  154.8817k    6.285  +      +      +      +      +      + a    +      +      + 
  158.4893k    6.285 -+------+------+------+------+------+-a----+------+------+-
  162.1810k    6.285  +      +      +      +      +      + a    +      +      + 
  165.9587k    6.285  +      +      +      +      +      + a    +      +      + 
  169.8244k    6.285  +      +      +      +      +      + a    +      +      + 
  173.7801k    6.285  +      +      +      +      +      + a    +      +      + 
  177.8279k    6.285  +      +      +      +      +      + a    +      +      + 
  181.9701k    6.285  +      +      +      +      +      + a    +      +      + 
  186.2087k    6.285  +      +      +      +      +      + a    +      +      + 
  190.5461k    6.285  +      +      +      +      +      + a    +      +      + 
  194.9845k    6.285  +      +      +      +      +      + a    +      +      + 
  199.5262k    6.285 -+------+------+------+------+------+-a----+------+------+-
  204.1738k    6.285  +      +      +      +      +      + a    +      +      + 
  208.9296k    6.285  +      +      +      +      +      + a    +      +      + 
  213.7962k    6.285  +      +      +      +      +      + a    +      +      + 
  218.7762k    6.285  +      +      +      +      +      + a    +      +      + 
  223.8721k    6.285  +      +      +      +      +      + a    +      +      + 
  229.0868k    6.285  +      +      +      +      +      + a    +      +      + 
  234.4229k    6.285  +      +      +      +      +      + a    +      +      + 
  239.8833k    6.285  +      +      +      +      +      + a    +      +      + 
  245.4709k    6.285  +      +      +      +      +      + a    +      +      + 
  251.1886k    6.285 -+------+------+------+------+------+-a----+------+------+-
  257.0396k    6.285  +      +      +      +      +      + a    +      +      + 
  263.0268k    6.285  +      +      +      +      +      + a    +      +      + 
  269.1535k    6.285  +      +      +      +      +      + a    +      +      + 
  275.4229k    6.285  +      +      +      +      +      + a    +      +      + 
  281.8383k    6.285  +      +      +      +      +      + a    +      +      + 
  288.4032k    6.285  +      +      +      +      +      + a    +      +      + 
  295.1209k    6.285  +      +      +      +      +      + a    +      +      + 
  301.9952k    6.285  +      +      +      +      +      + a    +      +      + 
  309.0295k    6.285  +      +      +      +      +      + a    +      +      + 
  316.2278k    6.285 -+------+------+------+------+------+-a----+------+------+-
  323.5937k    6.285  +      +      +      +      +      + a    +      +      + 
  331.1311k    6.285  +      +      +      +      +      + a    +      +      + 
  338.8442k    6.285  +      +      +      +      +      + a    +      +      + 
  346.7369k    6.285  +      +      +      +      +      + a    +      +      + 
  354.8134k    6.285  +      +      +      +      +      + a    +      +      + 
  363.0781k    6.285  +      +      +      +      +      + a    +      +      + 
  371.5352k    6.285  +      +      +      +      +      + a    +      +      + 
  380.1894k    6.285  +      +      +      +      +      + a    +      +      + 
  389.0451k    6.285  +      +      +      +      +      + a    +      +      + 
  398.1072k    6.285 -+------+------+------+------+------+-a----+------+------+-
  407.3803k    6.285  +      +      +      +      +      + a    +      +      + 
  416.8694k    6.285  +      +      +      +      +      + a    +      +      + 
  426.5795k    6.285  +      +      +      +      +      + a    +      +      + 
  436.5158k    6.285  +      +      +      +      +      + a    +      +      + 
  446.6836k    6.285  +      +      +      +      +      + a    +      +      + 
  457.0882k    6.285  +      +      +      +      +      + a    +      +      + 
  467.7351k    6.285  +      +      +      +      +      + a    +      +      + 
  478.6301k    6.285  +      +      +      +      +      + a    +      +      + 
  489.7788k    6.285  +      +      +      +      +      + a    +      +      + 
  501.1872k    6.285 -+------+------+------+------+------+-a----+------+------+-
  512.8614k    6.285  +      +      +      +      +      + a    +      +      + 
  524.8075k    6.285  +      +      +      +      +      + a    +      +      + 
  537.0318k    6.285  +      +      +      +      +      + a    +      +      + 
  549.5409k    6.285  +      +      +      +      +      + a    +      +      + 
  562.3413k    6.285  +      +      +      +      +      + a    +      +      + 
  575.4399k    6.285  +      +      +      +      +      + a    +      +      + 
  588.8437k    6.285  +      +      +      +      +      + a    +      +      + 
  602.5596k    6.285  +      +      +      +      +      + a    +      +      + 
  616.5950k    6.285  +      +      +      +      +      + a    +      +      + 
  630.9573k    6.285 -+------+------+------+------+------+-a----+------+------+-
  645.6542k    6.285  +      +      +      +      +      + a    +      +      + 
  660.6934k    6.285  +      +      +      +      +      + a    +      +      + 
  676.0830k    6.285  +      +      +      +      +      + a    +      +      + 
  691.8310k    6.285  +      +      +      +      +      + a    +      +      + 
  707.9458k    6.285  +      +      +      +      +      + a    +      +      + 
  724.4360k    6.285  +      +      +      +      +      + a    +      +      + 
  741.3102k    6.285  +      +      +      +      +      + a    +      +      + 
  758.5776k    6.285  +      +      +      +      +      + a    +      +      + 
  776.2471k    6.285  +      +      +      +      +      + a    +      +      + 
  794.3282k    6.285 -+------+------+------+------+------+-a----+------+------+-
  812.8305k    6.285  +      +      +      +      +      + a    +      +      + 
  831.7638k    6.285  +      +      +      +      +      + a    +      +      + 
  851.1380k    6.285  +      +      +      +      +      + a    +      +      + 
  870.9636k    6.285  +      +      +      +      +      + a    +      +      + 
  891.2509k    6.285  +      +      +      +      +      + a    +      +      + 
  912.0108k    6.285  +      +      +      +      +      + a    +      +      + 
  933.2543k    6.285  +      +      +      +      +      + a    +      +      + 
  954.9926k    6.285  +      +      +      +      +      + a    +      +      + 
  977.2372k    6.285  +      +      +      +      +      + a    +      +      + 
    1.0000x    6.285 -+------+------+------+------+------+-a----+------+------+-
    1.0233x    6.285  +      +      +      +      +      + a    +      +      + 
    1.0471x    6.285  +      +      +      +      +      + a    +      +      + 
    1.0715x    6.285  +      +      +      +      +      + a    +      +      + 
    1.0965x    6.285  +      +      +      +      +      + a    +      +      + 
    1.1220x    6.285  +      +      +      +      +      + a    +      +      + 
    1.1482x    6.285  +      +      +      +      +      + a    +      +      + 
    1.1749x    6.285  +      +      +      +      +      + a    +      +      + 
    1.2023x    6.285  +      +      +      +      +      + a    +      +      + 
    1.2303x    6.285  +      +      +      +      +      + a    +      +      + 
    1.2589x    6.285 -+------+------+------+------+------+-a----+------+------+-
    1.2882x    6.285  +      +      +      +      +      + a    +      +      + 
    1.3183x    6.285  +      +      +      +      +      + a    +      +      + 
    1.3490x    6.285  +      +      +      +      +      + a    +      +      + 
    1.3804x    6.285  +      +      +      +      +      + a    +      +      + 
    1.4125x    6.285  +      +      +      +      +      + a    +      +      + 
    1.4454x    6.285  +      +      +      +      +      + a    +      +      + 
    1.4791x    6.285  +      +      +      +      +      + a    +      +      + 
    1.5136x    6.285  +      +      +      +      +      + a    +      +      + 
    1.5488x    6.285  +      +      +      +      +      + a    +      +      + 
    1.5849x    6.285 -+------+------+------+------+------+-a----+------+------+-
    1.6218x    6.285  +      +      +      +      +      + a    +      +      + 
    1.6596x    6.285  +      +      +      +      +      + a    +      +      + 
    1.6982x    6.285  +      +      +      +      +      + a    +      +      + 
    1.7378x    6.285  +      +      +      +      +      + a    +      +      + 
    1.7783x    6.285  +      +      +      +      +      + a    +      +      + 
    1.8197x    6.285  +      +      +      +      +      + a    +      +      + 
    1.8621x    6.285  +      +      +      +      +      + a    +      +      + 
    1.9055x    6.285  +      +      +      +      +      + a    +      +      + 
    1.9498x    6.285  +      +      +      +      +      + a    +      +      + 
    1.9953x    6.284 -+------+------+------+------+------+-a----+------+------+-
    2.0417x    6.284  +      +      +      +      +      + a    +      +      + 
    2.0893x    6.284  +      +      +      +      +      + a    +      +      + 
    2.1380x    6.284  +      +      +      +      +      + a    +      +      + 
    2.1878x    6.284  +      +      +      +      +      + a    +      +      + 
    2.2387x    6.284  +      +      +      +      +      + a    +      +      + 
    2.2909x    6.284  +      +      +      +      +      + a    +      +      + 
    2.3442x    6.284  +      +      +      +      +      + a    +      +      + 
    2.3988x    6.284  +      +      +      +      +      + a    +      +      + 
    2.4547x    6.284  +      +      +      +      +      + a    +      +      + 
    2.5119x    6.284 -+------+------+------+------+------+-a----+------+------+-
    2.5704x    6.284  +      +      +      +      +      + a    +      +      + 
    2.6303x    6.284  +      +      +      +      +      + a    +      +      + 
    2.6915x    6.284  +      +      +      +      +      + a    +      +      + 
    2.7542x    6.284  +      +      +      +      +      + a    +      +      + 
    2.8184x    6.284  +      +      +      +      +      + a    +      +      + 
    2.8840x    6.284  +      +      +      +      +      + a    +      +      + 
    2.9512x    6.284  +      +      +      +      +      + a    +      +      + 
    3.0200x    6.284  +      +      +      +      +      + a    +      +      + 
    3.0903x    6.283  +      +      +      +      +      + a    +      +      + 
    3.1623x    6.283 -+------+------+------+------+------+-a----+------+------+-
    3.2359x    6.283  +      +      +      +      +      + a    +      +      + 
    3.3113x    6.283  +      +      +      +      +      + a    +      +      + 
    3.3884x    6.283  +      +      +      +      +      + a    +      +      + 
    3.4674x    6.283  +      +      +      +      +      + a    +      +      + 
    3.5481x    6.283  +      +      +      +      +      + a    +      +      + 
    3.6308x    6.283  +      +      +      +      +      + a    +      +      + 
    3.7154x    6.283  +      +      +      +      +      + a    +      +      + 
    3.8019x    6.282  +      +      +      +      +      + a    +      +      + 
    3.8905x    6.282  +      +      +      +      +      + a    +      +      + 
    3.9811x    6.282 -+------+------+------+------+------+-a----+------+------+-
    4.0738x    6.282  +      +      +      +      +      + a    +      +      + 
    4.1687x    6.282  +      +      +      +      +      + a    +      +      + 
    4.2658x    6.282  +      +      +      +      +      + a    +      +      + 
    4.3652x    6.282  +      +      +      +      +      + a    +      +      + 
    4.4668x    6.281  +      +      +      +      +      + a    +      +      + 
    4.5709x    6.281  +      +      +      +      +      + a    +      +      + 
    4.6774x    6.281  +      +      +      +      +      + a    +      +      + 
    4.7863x    6.281  +      +      +      +      +      + a    +      +      + 
    4.8978x    6.281  +      +      +      +      +      + a    +      +      + 
    5.0119x    6.280 -+------+------+------+------+------+-a----+------+------+-
    5.1286x    6.280  +      +      +      +      +      + a    +      +      + 
    5.2481x    6.280  +      +      +      +      +      + a    +      +      + 
    5.3703x    6.280  +      +      +      +      +      + a    +      +      + 
    5.4954x    6.280  +      +      +      +      +      + a    +      +      + 
    5.6234x    6.279  +      +      +      +      +      + a    +      +      + 
    5.7544x    6.279  +      +      +      +      +      + a    +      +      + 
    5.8884x    6.279  +      +      +      +      +      + a    +      +      + 
    6.0256x    6.278  +      +      +      +      +      + a    +      +      + 
    6.1660x    6.278  +      +      +      +      +      + a    +      +      + 
    6.3096x    6.278 -+------+------+------+------+------+-a----+------+------+-
    6.4565x    6.277  +      +      +      +      +      + a    +      +      + 
    6.6069x    6.277  +      +      +      +      +      + a    +      +      + 
    6.7608x    6.277  +      +      +      +      +      + a    +      +      + 
    6.9183x    6.276  +      +      +      +      +      + a    +      +      + 
    7.0795x    6.276  +      +      +      +      +      + a    +      +      + 
    7.2444x    6.275  +      +      +      +      +      + a    +      +      + 
    7.4131x    6.275  +      +      +      +      +      + a    +      +      + 
    7.5858x    6.274  +      +      +      +      +      + a    +      +      + 
    7.7625x    6.274  +      +      +      +      +      + a    +      +      + 
    7.9433x    6.273 -+------+------+------+------+------+-a----+------+------+-
    8.1283x    6.273  +      +      +      +      +      + a    +      +      + 
    8.3176x    6.272  +      +      +      +      +      + a    +      +      + 
    8.5114x    6.272  +      +      +      +      +      + a    +      +      + 
    8.7096x    6.271  +      +      +      +      +      + a    +      +      + 
    8.9125x    6.270  +      +      +      +      +      + a    +      +      + 
    9.1201x    6.270  +      +      +      +      +      + a    +      +      + 
    9.3325x    6.269  +      +      +      +      +      + a    +      +      + 
    9.5499x    6.268  +      +      +      +      +      + a    +      +      + 
    9.7724x    6.267  +      +      +      +      +      + a    +      +      + 
   10.0000x    6.266 -+------+------+------+------+------+-a----+------+------+-
   10.2329x    6.266  +      +      +      +      +      + a    +      +      + 
   10.4713x    6.265  +      +      +      +      +      + a    +      +      + 
   10.7152x    6.264  +      +      +      +      +      + a    +      +      + 
   10.9648x    6.263  +      +      +      +      +      + a    +      +      + 
   11.2202x    6.262  +      +      +      +      +      + a    +      +      + 
   11.4815x    6.260  +      +      +      +      +      + a    +      +      + 
   11.7490x    6.259  +      +      +      +      +      + a    +      +      + 
   12.0226x    6.258  +      +      +      +      +      + a    +      +      + 
   12.3027x    6.257  +      +      +      +      +      + a    +      +      + 
   12.5893x    6.255 -+------+------+------+------+------+-a----+------+------+-
   12.8825x    6.254  +      +      +      +      +      + a    +      +      + 
   13.1826x    6.253  +      +      +      +      +      + a    +      +      + 
   13.4896x    6.251  +      +      +      +      +      + a    +      +      + 
   13.8038x    6.249  +      +      +      +      +      + a    +      +      + 
   14.1254x    6.248  +      +      +      +      +      + a    +      +      + 
   14.4544x    6.246  +      +      +      +      +      + a    +      +      + 
   14.7911x    6.244  +      +      +      +      +      + a    +      +      + 
   15.1356x    6.242  +      +      +      +      +      + a    +      +      + 
   15.4882x    6.240  +      +      +      +      +      + a    +      +      + 
   15.8489x    6.238 -+------+------+------+------+------+-a----+------+------+-
   16.2181x    6.236  +      +      +      +      +      + a    +      +      + 
   16.5959x    6.234  +      +      +      +      +      + a    +      +      + 
   16.9824x    6.231  +      +      +      +      +      + a    +      +      + 
   17.3780x    6.229  +      +      +      +      +      + a    +      +      + 
   17.7828x    6.226  +      +      +      +      +      + a    +      +      + 
   18.1970x    6.223  +      +      +      +      +      + a    +      +      + 
   18.6209x    6.220  +      +      +      +      +      + a    +      +      + 
   19.0546x    6.217  +      +      +      +      +      + a    +      +      + 
   19.4984x    6.214  +      +      +      +      +      + a    +      +      + 
   19.9526x    6.211 -+------+------+------+------+------+-a----+------+------+-
   20.4174x    6.207  +      +      +      +      +      + a    +      +      + 
   20.8930x    6.204  +      +      +      +      +      + a    +      +      + 
   21.3796x    6.200  +      +      +      +      +      + a    +      +      + 
   21.8776x    6.196  +      +      +      +      +      + a    +      +      + 
   22.3872x    6.192  +      +      +      +      +      + a    +      +      + 
   22.9087x    6.187  +      +      +      +      +      + a    +      +      + 
   23.4423x    6.183  +      +      +      +      +      + a    +      +      + 
   23.9883x    6.178  +      +      +      +      +      + a    +      +      + 
   24.5471x    6.173  +      +      +      +      +      + a    +      +      + 
   25.1189x    6.168 -+------+------+------+------+------+-a----+------+------+-
   25.7040x    6.163  +      +      +      +      +      + a    +      +      + 
   26.3027x    6.157  +      +      +      +      +      + a    +      +      + 
   26.9153x    6.151  +      +      +      +      +      + a    +      +      + 
   27.5423x    6.145  +      +      +      +      +      + a    +      +      + 
   28.1838x    6.138  +      +      +      +      +      + a    +      +      + 
   28.8403x    6.131  +      +      +      +      +      + a    +      +      + 
   29.5121x    6.124  +      +      +      +      +      + a    +      +      + 
   30.1995x    6.117  +      +      +      +      +      + a    +      +      + 
   30.9030x    6.109  +      +      +      +      +      + a    +      +      + 
   31.6228x    6.101 -+------+------+------+------+------+-a----+------+------+-
   32.3594x    6.092  +      +      +      +      +      + a    +      +      + 
   33.1131x    6.083  +      +      +      +      +      + a    +      +      + 
   33.8844x    6.074  +      +      +      +      +      + a    +      +      + 
   34.6737x    6.064  +      +      +      +      +      +a     +      +      + 
   35.4813x    6.054  +      +      +      +      +      +a     +      +      + 
   36.3078x    6.044  +      +      +      +      +      +a     +      +      + 
   37.1535x    6.033  +      +      +      +      +      +a     +      +      + 
   38.0189x    6.021  +      +      +      +      +      +a     +      +      + 
   38.9045x    6.009  +      +      +      +      +      +a     +      +      + 
   39.8107x    5.996 -+------+------+------+------+------+a-----+------+------+-
   40.7380x    5.983  +      +      +      +      +      +a     +      +      + 
   41.6869x    5.970  +      +      +      +      +      +a     +      +      + 
   42.6580x    5.955  +      +      +      +      +      +a     +      +      + 
   43.6516x    5.940  +      +      +      +      +      +a     +      +      + 
   44.6684x    5.925  +      +      +      +      +      +a     +      +      + 
   45.7088x    5.908  +      +      +      +      +      +a     +      +      + 
   46.7735x    5.891  +      +      +      +      +      +a     +      +      + 
   47.8630x    5.874  +      +      +      +      +      +a     +      +      + 
   48.9779x    5.855  +      +      +      +      +      +a     +      +      + 
   50.1187x    5.836 -+------+------+------+------+------+a-----+------+------+-
   51.2861x    5.816  +      +      +      +      +      +a     +      +      + 
   52.4807x    5.795  +      +      +      +      +      +a     +      +      + 
   53.7032x    5.773  +      +      +      +      +      +a     +      +      + 
   54.9541x    5.751  +      +      +      +      +      +a     +      +      + 
   56.2341x    5.727  +      +      +      +      +      +a     +      +      + 
   57.5440x    5.702  +      +      +      +      +      +a     +      +      + 
   58.8844x    5.677  +      +      +      +      +      +a     +      +      + 
   60.2560x    5.650  +      +      +      +      +      +a     +      +      + 
   61.6595x    5.622  +      +      +      +      +      +a     +      +      + 
   63.0957x    5.593 -+------+------+------+------+------+a-----+------+------+-
   64.5654x    5.563  +      +      +      +      +      +a     +      +      + 
   66.0693x    5.532  +      +      +      +      +      +a     +      +      + 
   67.6083x    5.500  +      +      +      +      +      +a     +      +      + 
   69.1831x    5.466  +      +      +      +      +      +a     +      +      + 
   70.7946x    5.431  +      +      +      +      +      +a     +      +      + 
   72.4436x    5.395  +      +      +      +      +      +a     +      +      + 
   74.1310x    5.357  +      +      +      +      +      a      +      +      + 
   75.8578x    5.318  +      +      +      +      +      a      +      +      + 
   77.6247x    5.277  +      +      +      +      +      a      +      +      + 
   79.4328x    5.235 -+------+------+------+------+------a------+------+------+-
   81.2831x    5.191  +      +      +      +      +      a      +      +      + 
   83.1764x    5.146  +      +      +      +      +      a      +      +      + 
   85.1138x    5.099  +      +      +      +      +      a      +      +      + 
   87.0964x    5.050  +      +      +      +      +      a      +      +      + 
   89.1251x    5.000  +      +      +      +      +      a      +      +      + 
   91.2011x    4.948  +      +      +      +      +      a      +      +      + 
   93.3254x    4.894  +      +      +      +      +      a      +      +      + 
   95.4993x    4.838  +      +      +      +      +      a      +      +      + 
   97.7237x    4.780  +      +      +      +      +      a      +      +      + 
  100.0000x    4.721 -+------+------+------+------+------a------+------+------+-
  102.3293x    4.659  +      +      +      +      +      a      +      +      + 
  104.7129x    4.596  +      +      +      +      +     a+      +      +      + 
  107.1519x    4.530  +      +      +      +      +     a+      +      +      + 
  109.6478x    4.463  +      +      +      +      +     a+      +      +      + 
  112.2018x    4.393  +      +      +      +      +     a+      +      +      + 
  114.8154x    4.322  +      +      +      +      +     a+      +      +      + 
  117.4898x    4.248  +      +      +      +      +     a+      +      +      + 
  120.2264x    4.172  +      +      +      +      +     a+      +      +      + 
  123.0269x    4.094  +      +      +      +      +     a+      +      +      + 
  125.8925x    4.014 -+------+------+------+------+-----a+------+------+------+-
  128.8250x    3.931  +      +      +      +      +     a+      +      +      + 
  131.8257x    3.846  +      +      +      +      +    a +      +      +      + 
  134.8963x    3.759  +      +      +      +      +    a +      +      +      + 
  138.0384x    3.670  +      +      +      +      +    a +      +      +      + 
  141.2538x    3.579  +      +      +      +      +    a +      +      +      + 
  144.5440x    3.485  +      +      +      +      +    a +      +      +      + 
  147.9108x    3.389  +      +      +      +      +    a +      +      +      + 
  151.3561x    3.290  +      +      +      +      +    a +      +      +      + 
  154.8817x    3.189  +      +      +      +      +   a  +      +      +      + 
  158.4893x    3.086 -+------+------+------+------+---a--+------+------+------+-
  162.1810x    2.981  +      +      +      +      +   a  +      +      +      + 
  165.9587x    2.873  +      +      +      +      +   a  +      +      +      + 
  169.8244x    2.764  +      +      +      +      +   a  +      +      +      + 
  173.7801x    2.651  +      +      +      +      +   a  +      +      +      + 
  177.8279x    2.537  +      +      +      +      +   a  +      +      +      + 
  181.9701x    2.421  +      +      +      +      +  a   +      +      +      + 
  186.2087x    2.302  +      +      +      +      +  a   +      +      +      + 
  190.5461x    2.181  +      +      +      +      +  a   +      +      +      + 
  194.9845x    2.057  +      +      +      +      +  a   +      +      +      + 
  199.5262x    1.932 -+------+------+------+------+--a---+------+------+------+-
  204.1738x    1.805  +      +      +      +      +  a   +      +      +      + 
  208.9296x    1.675  +      +      +      +      + a    +      +      +      + 
  213.7962x    1.543  +      +      +      +      + a    +      +      +      + 
  218.7762x    1.410  +      +      +      +      + a    +      +      +      + 
  223.8721x    1.274  +      +      +      +      + a    +      +      +      + 
  229.0868x    1.136  +      +      +      +      + a    +      +      +      + 
  234.4229x  996.670m +      +      +      +      +a     +      +      +      + 
  239.8833x  855.165m +      +      +      +      +a     +      +      +      + 
  245.4709x  711.796m +      +      +      +      +a     +      +      +      + 
  251.1886x  566.605m-+------+------+------+------+a-----+------+------+------+-
  257.0396x  419.627m +      +      +      +      +a     +      +      +      + 
  263.0268x  270.905m +      +      +      +      a      +      +      +      + 
  269.1535x  120.477m +      +      +      +      a      +      +      +      + 
  275.4229x  -31.613m +      +      +      +      a      +      +      +      + 
  281.8383x -185.327m +      +      +      +      a      +      +      +      + 
  288.4032x -340.620m +      +      +      +      a      +      +      +      + 
  295.1209x -497.453m +      +      +      +     a+      +      +      +      + 
  301.9952x -655.782m +      +      +      +     a+      +      +      +      + 
  309.0295x -815.567m +      +      +      +     a+      +      +      +      + 
  316.2278x -976.764m-+------+------+------+-----a+------+------+------+------+-
  323.5937x   -1.139  +      +      +      +    a +      +      +      +      + 
  331.1311x   -1.303  +      +      +      +    a +      +      +      +      + 
  338.8442x   -1.468  +      +      +      +    a +      +      +      +      + 
  346.7369x   -1.635  +      +      +      +    a +      +      +      +      + 
  354.8134x   -1.802  +      +      +      +   a  +      +      +      +      + 
  363.0781x   -1.971  +      +      +      +   a  +      +      +      +      + 
  371.5352x   -2.141  +      +      +      +   a  +      +      +      +      + 
  380.1894x   -2.312  +      +      +      +   a  +      +      +      +      + 
  389.0451x   -2.484  +      +      +      +   a  +      +      +      +      + 
  398.1072x   -2.657 -+------+------+------+--a---+------+------+------+------+-
  407.3803x   -2.831  +      +      +      +  a   +      +      +      +      + 
  416.8694x   -3.006  +      +      +      +  a   +      +      +      +      + 
  426.5795x   -3.182  +      +      +      +  a   +      +      +      +      + 
  436.5158x   -3.359  +      +      +      + a    +      +      +      +      + 
  446.6836x   -3.537  +      +      +      + a    +      +      +      +      + 
  457.0882x   -3.715  +      +      +      + a    +      +      +      +      + 
  467.7351x   -3.894  +      +      +      + a    +      +      +      +      + 
  478.6301x   -4.074  +      +      +      +a     +      +      +      +      + 
  489.7788x   -4.254  +      +      +      +a     +      +      +      +      + 
  501.1872x   -4.436 -+------+------+------+a-----+------+------+------+------+-
  512.8614x   -4.618  +      +      +      +a     +      +      +      +      + 
  524.8075x   -4.800  +      +      +      a      +      +      +      +      + 
  537.0318x   -4.983  +      +      +      a      +      +      +      +      + 
  549.5409x   -5.167  +      +      +      a      +      +      +      +      + 
  562.3413x   -5.351  +      +      +      a      +      +      +      +      + 
  575.4399x   -5.535  +      +      +     a+      +      +      +      +      + 
  588.8437x   -5.720  +      +      +     a+      +      +      +      +      + 
  602.5596x   -5.906  +      +      +     a+      +      +      +      +      + 
  616.5950x   -6.092  +      +      +    a +      +      +      +      +      + 
  630.9573x   -6.278 -+------+------+----a-+------+------+------+------+------+-
  645.6542x   -6.464  +      +      +    a +      +      +      +      +      + 
  660.6934x   -6.651  +      +      +    a +      +      +      +      +      + 
  676.0830x   -6.839  +      +      +   a  +      +      +      +      +      + 
  691.8310x   -7.026  +      +      +   a  +      +      +      +      +      + 
  707.9458x   -7.214  +      +      +   a  +      +      +      +      +      + 
  724.4360x   -7.402  +      +      +   a  +      +      +      +      +      + 
  741.3102x   -7.590  +      +      +  a   +      +      +      +      +      + 
  758.5776x   -7.779  +      +      +  a   +      +      +      +      +      + 
  776.2471x   -7.967  +      +      +  a   +      +      +      +      +      + 
  794.3282x   -8.156 -+------+------+--a---+------+------+------+------+------+-
  812.8305x   -8.345  +      +      + a    +      +      +      +      +      + 
  831.7638x   -8.534  +      +      + a    +      +      +      +      +      + 
  851.1380x   -8.723  +      +      + a    +      +      +      +      +      + 
  870.9636x   -8.912  +      +      + a    +      +      +      +      +      + 
  891.2509x   -9.101  +      +      +a     +      +      +      +      +      + 
  912.0108x   -9.290  +      +      +a     +      +      +      +      +      + 
  933.2543x   -9.480  +      +      +a     +      +      +      +      +      + 
  954.9926x   -9.669  +      +      a      +      +      +      +      +      + 
  977.2372x   -9.858  +      +      a      +      +      +      +      +      + 
    1.0000g  -10.047 -+------+------a------+------+------+------+------+------+-
                      +             +             +             +             + 

b


          ***** job concluded
1****** HSPICE -- F-2011.09-SP2 32-BIT (Feb 27 2012) linux ******               
 ******  
 .title nmos

  ******  job statistics summary tnom=  25.000 temp=  25.000 *****
  
  
 ******  Machine Information  ******
 CPU:
 model name	: Intel(R) Xeon(R) CPU E3-1240 V2 @ 3.40GHz
 cpu MHz	: 3401.000
  
 OS:
 Linux version 2.6.32-358.23.2.el6.x86_64 (mockbuild@c6b9.bsys.dev.centos.org) (
 gcc version 4.4.7 20120313 (Red Hat 4.4.7-3) (GCC) ) #1 SMP Wed Oct 16 18:37:12
  UTC 2013


  ******  HSPICE Threads Information  ******

  Command Line Threads Count :     1
  Available CPU Count        :     8
  Actual Threads Count       :     1


  ******  Circuit Statistics  ******
  # nodes       =       8 # elements   =      11
  # resistors   =       2 # capacitors =       2 # inductors   =       0
  # mutual_inds =       0 # vccs       =       0 # vcvs        =       0
  # cccs        =       0 # ccvs       =       0 # volt_srcs   =       4
  # curr_srcs   =       1 # diodes     =       0 # bjts        =       0
  # jfets       =       0 # mosfets    =       2 # U elements  =       0
  # T elements  =       0 # W elements =       0 # B elements  =       0
  # S elements  =       0 # P elements =       0 # va device   =       0
  # vector_srcs =       0


  ******  Runtime Statistics (seconds)  ******

  analysis           time    # points   tot. iter  conv.iter
  op point           0.00           1           5
  ac analysis        0.01         601         601
  readin             0.01
  errchk             0.00
  setup              0.00
  output             0.00


           peak memory used         95.57 megabytes
           total cpu time            0.02 seconds
           total elapsed time        0.38 seconds
           job started at     15:50:48 12/01/2013
           job ended   at     15:50:48 12/01/2013


 lic: Release hspice token(s) 
