Using: /usr/local/apps/synopsys/current_hspice/hspice/linux/hspice nmos_diff_rload2.sp
 ****** HSPICE -- F-2011.09-SP2 32-BIT (Feb 27 2012) linux ******               
  Copyright (C) 2011 Synopsys, Inc. All Rights Reserved.                        
  Unpublished-rights reserved under US copyright laws.
  This program is protected by law and is subject to the
  terms and conditions of the license agreement from Synopsys.
  Use of this program is your acceptance to be bound by the
  license agreement. HSPICE is the trademark of Synopsys, Inc.
  Input File: nmos_diff_rload2.sp                                               
  Command line options: nmos_diff_rload2.sp
 lic:  
 lic: FLEXlm: v10.8 
 lic: USER:   goynese              HOSTNAME: kec1130-14.engr.oregonstate.edu 
 lic: HOSTID: 24be0511c109         PID:      13779 
 lic: Using FLEXlm license file: 
 lic: 7188@license.eecs.oregonstate.edu 
 lic: Checkout 1 hspice 
 lic: License/Maintenance for hspice will expire on 11-aug-2014/2013.03 
 lic: 3(in_use)/50(total) FLOATING license(s) on SERVER license.eecs.oregonstate
 lic:   
 Init: read install configuration file: /usr/local/apps/synopsys/current_hspice/hspice/meta.cfg
1****** HSPICE -- F-2011.09-SP2 32-BIT (Feb 27 2012) linux ******               
 ******  
 .title nmos

  ******  mos   model parameters tnom=  25.000 temp=  25.000 *****
 ***************************************************************************
 ***        model parameters  model name:   0:n_18     model type:nmos   ***
 ***************************************************************************

   *** general parameters ***
    deriv=   0.           

   ***  level 49  model parameters  ***

      hspver=    2006.03               level=         49         
     version=        3.1            paramchk=          0         
      apwarn=          1                lite=          0         
      vgslim=          0             binUnit=          1         
      capMod=          2               xpart=        0.5         
      mobMod=          1              nqsMod=          0         
      stiMod=          0                 elm=          5         
    sfvtflag=          0                 tox=    4.1e-09 meter   
          xj=      1e-07 meter       binflag=          0         
        lmin=          0 meter          lmax=          0 meter   
        wmin=          0 meter          wmax=          0 meter   
        lref=          0 meter          wref=          0 meter   
        lint=7.65986e-09 meter          wint=          0 meter   
       lmult=          1               wmult=          1         
          ll=          0                 lln=          1         
          lw=          0                 lwn=          1         
         lwl=          0                  wl=          0         
         wln=          1                  ww=          0         
         wwn=          1                 wwl=          0         
         dwg=-1.17694e-08 m/V             dwb=1.96583e-08 m/V^1/2 
          xl=          0                  xw=     -1e-08         
          a0=          2                 ags=   0.428182 V^-1    
          b0=-4.43566e-09 meter            b1=     -1e-07 meter   
        keta=-0.00873409 V^-1           voff= -0.0909514 V       
       ngate=          0 cm^-3           vbx=          0 V       
         vbm=         -3 V                xt=   1.55e-07 meter   
        vth0=   0.376033 V               nch= 2.3549e+17 cm^-3   
        nsub=      6e+16 cm^-3           nlx=1.83658e-07 meter   
      gamma1=          0 V^-1/2       gamma2=          0 V^-1/2  
          k1=   0.598252 V^1/2            k2= 0.00204285         
          k3=      0.001                 k3b=    5.47338 V^-1    
          w0=      1e-07 meter          dvt0=    1.38283         
        dvt1=   0.374633                dvt2=  0.0524724 V^-1    
       dvt0w=          0 meter^-1      dvt1w=          0 meter^-1
       dvt2w=          0 V^-1           dsub= 0.00880778         
        eta0=  0.0029649                etab=9.02839e-05 V^-1    
          u0=    265.099 cm^2/V/sec         ua=-1.34288e-09 m/V     
          ub=2.21876e-18 (m/V)^2          uc=5.30227e-11 V^-1    
        vsat=      99674 m/sec            a1=0.000117788 v^-1    
          a2=          1               delta=       0.01 V       
        rdsw=        150 ohm-um         prwg=        0.5 V^-1    
        prwb=       -0.2 V^-1/2           wr=          1         
        pclm=   0.739383             pdiblc1=   0.240506         
     pdiblc2= 0.00238467             pdiblcb=       -0.1 V^-1    
      pscbe1=2.25061e+09 V/m          pscbe2=5.50405e-09 V/m     
       drout=   0.810147                pvag= 0.00820885         
     nfactor=    2.47421                cdsc=    0.00024 f/m^2   
       cdscb=          0 f/V/m^2       cdscd=          0 f/V/m^2 
         cit=          0 f/m^2        alpha0=          0 m/V     
       beta0=         30 V               dlc=7.65986e-09 meter   
         dwc=          0 meter           clc=      1e-07 meter   
         cle=        0.6                cgso=   7.68e-10 f/m     
        cgdo=   7.68e-10 f/m            cgbo=      1e-12 f/m     
        cgsl=          0 f/m            cgdl=          0 f/m     
      ckappa=        0.6                  cf=          0 f/m     
        tnom=     300.15 K               kt1=      -0.11 V       
        kt1l=          0                 kt2=      0.022         
         ute=       -1.5                 ua1=   4.31e-09 m/V     
         ub1=  -7.61e-18 (m/V)^2         uc1=   -5.6e-11 m/V^2   
          at=      33000 m/s             prt=          0         
         using Berkeley noise model       noiMod=          1         
        noia=      1e+20                noib=      50000         
        noic=   -1.4e-12                  em=    4.1e+07         
          ef=          1                  af=          1         
          kf=          0              gdsnoi=-1.23457e-29         
         using Hspice diodes            using ACM 
         acm=         0                 hdif=         0 meter    
        ldif=         0 meter             js=         0 amp/m^2  
         jsw=         0 amp/m            xti=         0          
           n=         1                   cj=0.00096236 f/m^2    
          mj=  0.380501                   pb=       0.8 V        
        cjsw=2.37186e-10 f/m             mjsw=  0.107791          
         php=       0.8 V               pbsw (not used)           
      cjgate=2.37186e-10 f/m            cjswg (not used)           
       mjswg (not used)                 pbswg (not used)           
       lketa=-0.00944713               wketa= 0.00500085         
       pketa=-0.00308008               pvth0=-0.000919017         
         pk2=0.000320258               peta0=9.33065e-05         
         pu0=    32.7094                 pua=1.35883e-10         
       pvsat=    2004.06               prdsw=         -5         
 

  
      
 *****************************************************************
 ******  option summary
 ******
 runlvl  = 3         bypass  = 2         
1****** HSPICE -- F-2011.09-SP2 32-BIT (Feb 27 2012) linux ******               
 ******  
 .title nmos

  ******  operating point information tnom=  25.000 temp=  25.000 *****
 ***** operating point status is all       simulation time is     0.     
    node    =voltage      node    =voltage      node    =voltage

 +0:drain   =   1.2683  0:gate    = 600.0000m 0:vdd     =   1.8000 
 +0:vin1    = 600.0000m


 **** voltage sources

 subckt                        
 element  0:vddx     0:vin1x   
  volts      1.8000   600.0000m
  current -531.7191u    0.     
  power    957.0945u    0.     

     total voltage source power dissipation=  957.0945u       watts



 **** resistors

 subckt                        
 element  0:r1       0:r2      
  r value    1.0000k    1.0000k
  v drop     0.      -531.7191m
  current    0.      -531.7191u
  power      0.       282.7252u



 **** mosfets


 subckt             
 element  0:m1      
 model    0:n_18    
 region     Saturati
  id       531.7191u
  ibs        0.     
  ibd        0.     
  vgs      600.0000m
  vds        1.2683 
  vbs        0.     
  vth      417.0527m
  vdsat    141.2833m
  vod      182.9473m
  beta      42.9514m
  gam eff  594.4615m
  gm         5.8974m
  gds       51.2871u
  gmb        1.6721m
  cdtot    237.1224f
  cgtot      1.2632p
  cstot    821.4365f
  cbtot    614.5851f
  cgs        1.0906p
  cgd      108.1243f



 ***************************************************
   ******   pole/zero analysis  
  
  
    input =  0:vin1x          output = v(drain)
  
       poles (rad/sec)                 poles ( hertz)
 real            imag            real            imag            
 -405.582x       0.              -64.5504x       0.              
 -1.72145g       0.              -273.977x       0.              
  
       zeros (rad/sec)                 zeros ( hertz)
 real            imag            real            imag            
 11.1906g        0.              1.78104g        0.              
  
  ***** constant factor = 3.49992x
 ******  
 .title nmos

  ******  ac analysis tnom=  25.000 temp=  25.000 *****
x

        freq    volt db    
                   drain   
    1.00000k      8.9582   
    1.02329k      8.9582   
    1.04713k      8.9582   
    1.07152k      8.9582   
    1.09648k      8.9582   
    1.12202k      8.9582   
    1.14815k      8.9582   
    1.17490k      8.9582   
    1.20226k      8.9582   
    1.23027k      8.9582   
    1.25893k      8.9582   
    1.28825k      8.9582   
    1.31826k      8.9582   
    1.34896k      8.9582   
    1.38038k      8.9582   
    1.41254k      8.9582   
    1.44544k      8.9582   
    1.47911k      8.9582   
    1.51356k      8.9582   
    1.54882k      8.9582   
    1.58489k      8.9582   
    1.62181k      8.9582   
    1.65959k      8.9582   
    1.69824k      8.9582   
    1.73780k      8.9582   
    1.77828k      8.9582   
    1.81970k      8.9582   
    1.86209k      8.9582   
    1.90546k      8.9582   
    1.94984k      8.9582   
    1.99526k      8.9582   
    2.04174k      8.9582   
    2.08930k      8.9582   
    2.13796k      8.9582   
    2.18776k      8.9582   
    2.23872k      8.9582   
    2.29087k      8.9582   
    2.34423k      8.9582   
    2.39883k      8.9582   
    2.45471k      8.9582   
    2.51189k      8.9582   
    2.57040k      8.9582   
    2.63027k      8.9582   
    2.69153k      8.9582   
    2.75423k      8.9582   
    2.81838k      8.9582   
    2.88403k      8.9582   
    2.95121k      8.9582   
    3.01995k      8.9582   
    3.09030k      8.9582   
    3.16228k      8.9582   
    3.23594k      8.9582   
    3.31131k      8.9582   
    3.38844k      8.9582   
    3.46737k      8.9582   
    3.54813k      8.9582   
    3.63078k      8.9582   
    3.71535k      8.9582   
    3.80189k      8.9582   
    3.89045k      8.9582   
    3.98107k      8.9582   
    4.07380k      8.9582   
    4.16869k      8.9582   
    4.26580k      8.9582   
    4.36516k      8.9582   
    4.46684k      8.9582   
    4.57088k      8.9582   
    4.67735k      8.9582   
    4.78630k      8.9582   
    4.89779k      8.9582   
    5.01187k      8.9582   
    5.12861k      8.9582   
    5.24807k      8.9582   
    5.37032k      8.9582   
    5.49541k      8.9582   
    5.62341k      8.9582   
    5.75440k      8.9582   
    5.88844k      8.9582   
    6.02560k      8.9582   
    6.16595k      8.9582   
    6.30957k      8.9582   
    6.45654k      8.9582   
    6.60693k      8.9582   
    6.76083k      8.9582   
    6.91831k      8.9582   
    7.07946k      8.9582   
    7.24436k      8.9582   
    7.41310k      8.9582   
    7.58578k      8.9582   
    7.76247k      8.9582   
    7.94328k      8.9582   
    8.12831k      8.9582   
    8.31764k      8.9582   
    8.51138k      8.9582   
    8.70964k      8.9582   
    8.91251k      8.9582   
    9.12011k      8.9582   
    9.33254k      8.9582   
    9.54993k      8.9582   
    9.77237k      8.9582   
   10.00000k      8.9582   
   10.23293k      8.9582   
   10.47129k      8.9582   
   10.71519k      8.9582   
   10.96478k      8.9582   
   11.22018k      8.9582   
   11.48154k      8.9582   
   11.74898k      8.9582   
   12.02264k      8.9582   
   12.30269k      8.9582   
   12.58925k      8.9582   
   12.88250k      8.9582   
   13.18257k      8.9582   
   13.48963k      8.9582   
   13.80384k      8.9582   
   14.12538k      8.9582   
   14.45440k      8.9582   
   14.79108k      8.9582   
   15.13561k      8.9582   
   15.48817k      8.9582   
   15.84893k      8.9582   
   16.21810k      8.9582   
   16.59587k      8.9582   
   16.98244k      8.9582   
   17.37801k      8.9582   
   17.78279k      8.9582   
   18.19701k      8.9582   
   18.62087k      8.9582   
   19.05461k      8.9582   
   19.49845k      8.9582   
   19.95262k      8.9582   
   20.41738k      8.9582   
   20.89296k      8.9582   
   21.37962k      8.9582   
   21.87762k      8.9582   
   22.38721k      8.9582   
   22.90868k      8.9582   
   23.44229k      8.9582   
   23.98833k      8.9582   
   24.54709k      8.9582   
   25.11886k      8.9582   
   25.70396k      8.9582   
   26.30268k      8.9582   
   26.91535k      8.9582   
   27.54229k      8.9582   
   28.18383k      8.9582   
   28.84032k      8.9582   
   29.51209k      8.9582   
   30.19952k      8.9582   
   30.90295k      8.9582   
   31.62278k      8.9582   
   32.35937k      8.9582   
   33.11311k      8.9582   
   33.88442k      8.9582   
   34.67369k      8.9582   
   35.48134k      8.9582   
   36.30781k      8.9582   
   37.15352k      8.9582   
   38.01894k      8.9582   
   38.90451k      8.9582   
   39.81072k      8.9582   
   40.73803k      8.9582   
   41.68694k      8.9582   
   42.65795k      8.9582   
   43.65158k      8.9582   
   44.66836k      8.9582   
   45.70882k      8.9582   
   46.77351k      8.9582   
   47.86301k      8.9582   
   48.97788k      8.9582   
   50.11872k      8.9582   
   51.28614k      8.9582   
   52.48075k      8.9582   
   53.70318k      8.9582   
   54.95409k      8.9582   
   56.23413k      8.9582   
   57.54399k      8.9582   
   58.88437k      8.9582   
   60.25596k      8.9582   
   61.65950k      8.9582   
   63.09573k      8.9582   
   64.56542k      8.9582   
   66.06934k      8.9582   
   67.60830k      8.9582   
   69.18310k      8.9582   
   70.79458k      8.9582   
   72.44360k      8.9582   
   74.13102k      8.9582   
   75.85776k      8.9582   
   77.62471k      8.9582   
   79.43282k      8.9582   
   81.28305k      8.9582   
   83.17638k      8.9582   
   85.11380k      8.9582   
   87.09636k      8.9582   
   89.12509k      8.9582   
   91.20108k      8.9582   
   93.32543k      8.9582   
   95.49926k      8.9582   
   97.72372k      8.9582   
  100.00000k      8.9582   
  102.32930k      8.9582   
  104.71285k      8.9582   
  107.15193k      8.9582   
  109.64782k      8.9582   
  112.20185k      8.9582   
  114.81536k      8.9582   
  117.48976k      8.9581   
  120.22644k      8.9581   
  123.02688k      8.9581   
  125.89254k      8.9581   
  128.82496k      8.9581   
  131.82567k      8.9581   
  134.89629k      8.9581   
  138.03843k      8.9581   
  141.25375k      8.9581   
  144.54398k      8.9581   
  147.91084k      8.9581   
  151.35612k      8.9581   
  154.88166k      8.9581   
  158.48932k      8.9581   
  162.18101k      8.9581   
  165.95869k      8.9581   
  169.82437k      8.9581   
  173.78008k      8.9581   
  177.82794k      8.9581   
  181.97009k      8.9581   
  186.20871k      8.9581   
  190.54607k      8.9581   
  194.98446k      8.9581   
  199.52623k      8.9581   
  204.17379k      8.9581   
  208.92961k      8.9581   
  213.79621k      8.9581   
  218.77616k      8.9581   
  223.87211k      8.9581   
  229.08677k      8.9581   
  234.42288k      8.9581   
  239.88329k      8.9581   
  245.47089k      8.9581   
  251.18864k      8.9581   
  257.03958k      8.9581   
  263.02680k      8.9581   
  269.15348k      8.9581   
  275.42287k      8.9581   
  281.83829k      8.9581   
  288.40315k      8.9581   
  295.12092k      8.9581   
  301.99517k      8.9581   
  309.02954k      8.9581   
  316.22777k      8.9581   
  323.59366k      8.9580   
  331.13112k      8.9580   
  338.84416k      8.9580   
  346.73685k      8.9580   
  354.81339k      8.9580   
  363.07805k      8.9580   
  371.53523k      8.9580   
  380.18940k      8.9580   
  389.04514k      8.9580   
  398.10717k      8.9580   
  407.38028k      8.9580   
  416.86938k      8.9580   
  426.57952k      8.9580   
  436.51583k      8.9580   
  446.68359k      8.9579   
  457.08819k      8.9579   
  467.73514k      8.9579   
  478.63009k      8.9579   
  489.77882k      8.9579   
  501.18723k      8.9579   
  512.86138k      8.9579   
  524.80746k      8.9579   
  537.03180k      8.9578   
  549.54087k      8.9578   
  562.34133k      8.9578   
  575.43994k      8.9578   
  588.84366k      8.9578   
  602.55959k      8.9578   
  616.59500k      8.9577   
  630.95734k      8.9577   
  645.65423k      8.9577   
  660.69345k      8.9577   
  676.08298k      8.9577   
  691.83097k      8.9576   
  707.94578k      8.9576   
  724.43596k      8.9576   
  741.31024k      8.9576   
  758.57758k      8.9575   
  776.24712k      8.9575   
  794.32823k      8.9575   
  812.83052k      8.9574   
  831.76377k      8.9574   
  851.13804k      8.9574   
  870.96359k      8.9573   
  891.25094k      8.9573   
  912.01084k      8.9573   
  933.25430k      8.9572   
  954.99259k      8.9572   
  977.23722k      8.9571   
    1.00000x      8.9571   
    1.02329x      8.9570   
    1.04713x      8.9570   
    1.07152x      8.9569   
    1.09648x      8.9568   
    1.12202x      8.9568   
    1.14815x      8.9567   
    1.17490x      8.9566   
    1.20226x      8.9566   
    1.23027x      8.9565   
    1.25893x      8.9564   
    1.28825x      8.9563   
    1.31826x      8.9563   
    1.34896x      8.9562   
    1.38038x      8.9561   
    1.41254x      8.9560   
    1.44544x      8.9559   
    1.47911x      8.9558   
    1.51356x      8.9556   
    1.54882x      8.9555   
    1.58489x      8.9554   
    1.62181x      8.9553   
    1.65959x      8.9551   
    1.69824x      8.9550   
    1.73780x      8.9548   
    1.77828x      8.9547   
    1.81970x      8.9545   
    1.86209x      8.9544   
    1.90546x      8.9542   
    1.94984x      8.9540   
    1.99526x      8.9538   
    2.04174x      8.9536   
    2.08930x      8.9534   
    2.13796x      8.9531   
    2.18776x      8.9529   
    2.23872x      8.9527   
    2.29087x      8.9524   
    2.34423x      8.9521   
    2.39883x      8.9518   
    2.45471x      8.9515   
    2.51189x      8.9512   
    2.57040x      8.9509   
    2.63027x      8.9506   
    2.69153x      8.9502   
    2.75423x      8.9498   
    2.81838x      8.9494   
    2.88403x      8.9490   
    2.95121x      8.9486   
    3.01995x      8.9482   
    3.09030x      8.9477   
    3.16228x      8.9472   
    3.23594x      8.9467   
    3.31131x      8.9461   
    3.38844x      8.9456   
    3.46737x      8.9450   
    3.54813x      8.9444   
    3.63078x      8.9437   
    3.71535x      8.9430   
    3.80189x      8.9423   
    3.89045x      8.9416   
    3.98107x      8.9408   
    4.07380x      8.9400   
    4.16869x      8.9391   
    4.26580x      8.9382   
    4.36516x      8.9373   
    4.46684x      8.9363   
    4.57088x      8.9353   
    4.67735x      8.9342   
    4.78630x      8.9331   
    4.89779x      8.9319   
    5.01187x      8.9306   
    5.12861x      8.9294   
    5.24807x      8.9280   
    5.37032x      8.9266   
    5.49541x      8.9251   
    5.62341x      8.9235   
    5.75440x      8.9219   
    5.88844x      8.9202   
    6.02560x      8.9184   
    6.16595x      8.9166   
    6.30957x      8.9146   
    6.45654x      8.9126   
    6.60693x      8.9104   
    6.76083x      8.9082   
    6.91831x      8.9059   
    7.07946x      8.9034   
    7.24436x      8.9008   
    7.41310x      8.8982   
    7.58578x      8.8953   
    7.76247x      8.8924   
    7.94328x      8.8893   
    8.12831x      8.8861   
    8.31764x      8.8827   
    8.51138x      8.8792   
    8.70964x      8.8755   
    8.91251x      8.8717   
    9.12011x      8.8676   
    9.33254x      8.8634   
    9.54993x      8.8590   
    9.77237x      8.8544   
   10.00000x      8.8495   
   10.23293x      8.8445   
   10.47129x      8.8392   
   10.71519x      8.8336   
   10.96478x      8.8278   
   11.22018x      8.8218   
   11.48154x      8.8155   
   11.74898x      8.8088   
   12.02264x      8.8019   
   12.30269x      8.7947   
   12.58925x      8.7871   
   12.88250x      8.7792   
   13.18257x      8.7709   
   13.48963x      8.7623   
   13.80384x      8.7532   
   14.12538x      8.7438   
   14.45440x      8.7339   
   14.79108x      8.7236   
   15.13561x      8.7128   
   15.48817x      8.7015   
   15.84893x      8.6898   
   16.21810x      8.6775   
   16.59587x      8.6647   
   16.98244x      8.6513   
   17.37801x      8.6373   
   17.78279x      8.6226   
   18.19701x      8.6074   
   18.62087x      8.5915   
   19.05461x      8.5749   
   19.49845x      8.5575   
   19.95262x      8.5394   
   20.41738x      8.5206   
   20.89296x      8.5009   
   21.37962x      8.4804   
   21.87762x      8.4590   
   22.38721x      8.4367   
   22.90868x      8.4134   
   23.44229x      8.3892   
   23.98833x      8.3640   
   24.54709x      8.3377   
   25.11886x      8.3103   
   25.70396x      8.2818   
   26.30268x      8.2521   
   26.91535x      8.2213   
   27.54229x      8.1892   
   28.18383x      8.1558   
   28.84032x      8.1210   
   29.51209x      8.0849   
   30.19952x      8.0474   
   30.90295x      8.0084   
   31.62278x      7.9679   
   32.35937x      7.9258   
   33.11311x      7.8821   
   33.88442x      7.8368   
   34.67369x      7.7898   
   35.48134x      7.7411   
   36.30781x      7.6906   
   37.15352x      7.6382   
   38.01894x      7.5840   
   38.90451x      7.5278   
   39.81072x      7.4696   
   40.73803x      7.4095   
   41.68694x      7.3473   
   42.65795x      7.2829   
   43.65158x      7.2164   
   44.66836x      7.1477   
   45.70882x      7.0768   
   46.77351x      7.0035   
   47.86301x      6.9280   
   48.97788x      6.8501   
   50.11872x      6.7697   
   51.28614x      6.6870   
   52.48075x      6.6017   
   53.70318x      6.5140   
   54.95409x      6.4237   
   56.23413x      6.3308   
   57.54399x      6.2353   
   58.88437x      6.1372   
   60.25596x      6.0364   
   61.65950x      5.9329   
   63.09573x      5.8267   
   64.56542x      5.7178   
   66.06934x      5.6062   
   67.60830x      5.4917   
   69.18310x      5.3745   
   70.79458x      5.2545   
   72.44360x      5.1317   
   74.13102x      5.0061   
   75.85776x      4.8776   
   77.62471x      4.7463   
   79.43282x      4.6122   
   81.28305x      4.4752   
   83.17638x      4.3353   
   85.11380x      4.1926   
   87.09636x      4.0471   
   89.12509x      3.8987   
   91.20108x      3.7475   
   93.32543x      3.5934   
   95.49926x      3.4364   
   97.72372x      3.2766   
  100.00000x      3.1140   
  102.32930x      2.9485   
  104.71285x      2.7802   
  107.15193x      2.6090   
  109.64782x      2.4351   
  112.20185x      2.2583   
  114.81536x      2.0787   
  117.48976x      1.8962   
  120.22644x      1.7110   
  123.02688x      1.5230   
  125.89254x      1.3321   
  128.82496x      1.1385   
  131.82567x    942.0729m  
  134.89629x    742.8485m  
  138.03843x    540.8345m  
  141.25375x    336.0309m  
  144.54398x    128.4407m  
  147.91084x    -81.9355m  
  151.35612x   -295.0966m  
  154.88166x   -511.0409m  
  158.48932x   -729.7686m  
  162.18101x   -951.2786m  
  165.95869x     -1.1756   
  169.82437x     -1.4026   
  173.78008x     -1.6325   
  177.82794x     -1.8651   
  181.97009x     -2.1005   
  186.20871x     -2.3387   
  190.54607x     -2.5797   
  194.98446x     -2.8234   
  199.52623x     -3.0699   
  204.17379x     -3.3192   
  208.92961x     -3.5712   
  213.79621x     -3.8260   
  218.77616x     -4.0835   
  223.87211x     -4.3437   
  229.08677x     -4.6067   
  234.42288x     -4.8724   
  239.88329x     -5.1408   
  245.47089x     -5.4118   
  251.18864x     -5.6856   
  257.03958x     -5.9619   
  263.02680x     -6.2409   
  269.15348x     -6.5225   
  275.42287x     -6.8067   
  281.83829x     -7.0934   
  288.40315x     -7.3826   
  295.12092x     -7.6743   
  301.99517x     -7.9685   
  309.02954x     -8.2651   
  316.22777x     -8.5640   
  323.59366x     -8.8653   
  331.13112x     -9.1689   
  338.84416x     -9.4747   
  346.73685x     -9.7828   
  354.81339x    -10.0930   
  363.07805x    -10.4053   
  371.53523x    -10.7196   
  380.18940x    -11.0359   
  389.04514x    -11.3542   
  398.10717x    -11.6744   
  407.38028x    -11.9964   
  416.86938x    -12.3201   
  426.57952x    -12.6455   
  436.51583x    -12.9726   
  446.68359x    -13.3012   
  457.08819x    -13.6314   
  467.73514x    -13.9630   
  478.63009x    -14.2959   
  489.77882x    -14.6301   
  501.18723x    -14.9656   
  512.86138x    -15.3022   
  524.80746x    -15.6399   
  537.03180x    -15.9786   
  549.54087x    -16.3182   
  562.34133x    -16.6587   
  575.43994x    -17.0000   
  588.84366x    -17.3420   
  602.55959x    -17.6846   
  616.59500x    -18.0278   
  630.95734x    -18.3715   
  645.65423x    -18.7156   
  660.69345x    -19.0600   
  676.08298x    -19.4047   
  691.83097x    -19.7496   
  707.94578x    -20.0946   
  724.43596x    -20.4396   
  741.31024x    -20.7845   
  758.57758x    -21.1294   
  776.24712x    -21.4741   
  794.32823x    -21.8185   
  812.83052x    -22.1625   
  831.76377x    -22.5062   
  851.13804x    -22.8493   
  870.96359x    -23.1919   
  891.25094x    -23.5339   
  912.01084x    -23.8752   
  933.25430x    -24.2157   
  954.99259x    -24.5554   
  977.23722x    -24.8941   
    1.00000g    -25.2319   
y

a


      freq       vdb(drain)
 (a       )     -30.0000      -20.0000      -10.0000        0.          10.0000 
                      +             +             +             +             + 
    1.0000k    8.958 -+------+------+------+------+------+------+------+-----a+-
    1.0233k    8.958  +      +      +      +      +      +      +      +     a+ 
    1.0471k    8.958  +      +      +      +      +      +      +      +     a+ 
    1.0715k    8.958  +      +      +      +      +      +      +      +     a+ 
    1.0965k    8.958  +      +      +      +      +      +      +      +     a+ 
    1.1220k    8.958  +      +      +      +      +      +      +      +     a+ 
    1.1482k    8.958  +      +      +      +      +      +      +      +     a+ 
    1.1749k    8.958  +      +      +      +      +      +      +      +     a+ 
    1.2023k    8.958  +      +      +      +      +      +      +      +     a+ 
    1.2303k    8.958  +      +      +      +      +      +      +      +     a+ 
    1.2589k    8.958 -+------+------+------+------+------+------+------+-----a+-
    1.2882k    8.958  +      +      +      +      +      +      +      +     a+ 
    1.3183k    8.958  +      +      +      +      +      +      +      +     a+ 
    1.3490k    8.958  +      +      +      +      +      +      +      +     a+ 
    1.3804k    8.958  +      +      +      +      +      +      +      +     a+ 
    1.4125k    8.958  +      +      +      +      +      +      +      +     a+ 
    1.4454k    8.958  +      +      +      +      +      +      +      +     a+ 
    1.4791k    8.958  +      +      +      +      +      +      +      +     a+ 
    1.5136k    8.958  +      +      +      +      +      +      +      +     a+ 
    1.5488k    8.958  +      +      +      +      +      +      +      +     a+ 
    1.5849k    8.958 -+------+------+------+------+------+------+------+-----a+-
    1.6218k    8.958  +      +      +      +      +      +      +      +     a+ 
    1.6596k    8.958  +      +      +      +      +      +      +      +     a+ 
    1.6982k    8.958  +      +      +      +      +      +      +      +     a+ 
    1.7378k    8.958  +      +      +      +      +      +      +      +     a+ 
    1.7783k    8.958  +      +      +      +      +      +      +      +     a+ 
    1.8197k    8.958  +      +      +      +      +      +      +      +     a+ 
    1.8621k    8.958  +      +      +      +      +      +      +      +     a+ 
    1.9055k    8.958  +      +      +      +      +      +      +      +     a+ 
    1.9498k    8.958  +      +      +      +      +      +      +      +     a+ 
    1.9953k    8.958 -+------+------+------+------+------+------+------+-----a+-
    2.0417k    8.958  +      +      +      +      +      +      +      +     a+ 
    2.0893k    8.958  +      +      +      +      +      +      +      +     a+ 
    2.1380k    8.958  +      +      +      +      +      +      +      +     a+ 
    2.1878k    8.958  +      +      +      +      +      +      +      +     a+ 
    2.2387k    8.958  +      +      +      +      +      +      +      +     a+ 
    2.2909k    8.958  +      +      +      +      +      +      +      +     a+ 
    2.3442k    8.958  +      +      +      +      +      +      +      +     a+ 
    2.3988k    8.958  +      +      +      +      +      +      +      +     a+ 
    2.4547k    8.958  +      +      +      +      +      +      +      +     a+ 
    2.5119k    8.958 -+------+------+------+------+------+------+------+-----a+-
    2.5704k    8.958  +      +      +      +      +      +      +      +     a+ 
    2.6303k    8.958  +      +      +      +      +      +      +      +     a+ 
    2.6915k    8.958  +      +      +      +      +      +      +      +     a+ 
    2.7542k    8.958  +      +      +      +      +      +      +      +     a+ 
    2.8184k    8.958  +      +      +      +      +      +      +      +     a+ 
    2.8840k    8.958  +      +      +      +      +      +      +      +     a+ 
    2.9512k    8.958  +      +      +      +      +      +      +      +     a+ 
    3.0200k    8.958  +      +      +      +      +      +      +      +     a+ 
    3.0903k    8.958  +      +      +      +      +      +      +      +     a+ 
    3.1623k    8.958 -+------+------+------+------+------+------+------+-----a+-
    3.2359k    8.958  +      +      +      +      +      +      +      +     a+ 
    3.3113k    8.958  +      +      +      +      +      +      +      +     a+ 
    3.3884k    8.958  +      +      +      +      +      +      +      +     a+ 
    3.4674k    8.958  +      +      +      +      +      +      +      +     a+ 
    3.5481k    8.958  +      +      +      +      +      +      +      +     a+ 
    3.6308k    8.958  +      +      +      +      +      +      +      +     a+ 
    3.7154k    8.958  +      +      +      +      +      +      +      +     a+ 
    3.8019k    8.958  +      +      +      +      +      +      +      +     a+ 
    3.8905k    8.958  +      +      +      +      +      +      +      +     a+ 
    3.9811k    8.958 -+------+------+------+------+------+------+------+-----a+-
    4.0738k    8.958  +      +      +      +      +      +      +      +     a+ 
    4.1687k    8.958  +      +      +      +      +      +      +      +     a+ 
    4.2658k    8.958  +      +      +      +      +      +      +      +     a+ 
    4.3652k    8.958  +      +      +      +      +      +      +      +     a+ 
    4.4668k    8.958  +      +      +      +      +      +      +      +     a+ 
    4.5709k    8.958  +      +      +      +      +      +      +      +     a+ 
    4.6774k    8.958  +      +      +      +      +      +      +      +     a+ 
    4.7863k    8.958  +      +      +      +      +      +      +      +     a+ 
    4.8978k    8.958  +      +      +      +      +      +      +      +     a+ 
    5.0119k    8.958 -+------+------+------+------+------+------+------+-----a+-
    5.1286k    8.958  +      +      +      +      +      +      +      +     a+ 
    5.2481k    8.958  +      +      +      +      +      +      +      +     a+ 
    5.3703k    8.958  +      +      +      +      +      +      +      +     a+ 
    5.4954k    8.958  +      +      +      +      +      +      +      +     a+ 
    5.6234k    8.958  +      +      +      +      +      +      +      +     a+ 
    5.7544k    8.958  +      +      +      +      +      +      +      +     a+ 
    5.8884k    8.958  +      +      +      +      +      +      +      +     a+ 
    6.0256k    8.958  +      +      +      +      +      +      +      +     a+ 
    6.1660k    8.958  +      +      +      +      +      +      +      +     a+ 
    6.3096k    8.958 -+------+------+------+------+------+------+------+-----a+-
    6.4565k    8.958  +      +      +      +      +      +      +      +     a+ 
    6.6069k    8.958  +      +      +      +      +      +      +      +     a+ 
    6.7608k    8.958  +      +      +      +      +      +      +      +     a+ 
    6.9183k    8.958  +      +      +      +      +      +      +      +     a+ 
    7.0795k    8.958  +      +      +      +      +      +      +      +     a+ 
    7.2444k    8.958  +      +      +      +      +      +      +      +     a+ 
    7.4131k    8.958  +      +      +      +      +      +      +      +     a+ 
    7.5858k    8.958  +      +      +      +      +      +      +      +     a+ 
    7.7625k    8.958  +      +      +      +      +      +      +      +     a+ 
    7.9433k    8.958 -+------+------+------+------+------+------+------+-----a+-
    8.1283k    8.958  +      +      +      +      +      +      +      +     a+ 
    8.3176k    8.958  +      +      +      +      +      +      +      +     a+ 
    8.5114k    8.958  +      +      +      +      +      +      +      +     a+ 
    8.7096k    8.958  +      +      +      +      +      +      +      +     a+ 
    8.9125k    8.958  +      +      +      +      +      +      +      +     a+ 
    9.1201k    8.958  +      +      +      +      +      +      +      +     a+ 
    9.3325k    8.958  +      +      +      +      +      +      +      +     a+ 
    9.5499k    8.958  +      +      +      +      +      +      +      +     a+ 
    9.7724k    8.958  +      +      +      +      +      +      +      +     a+ 
   10.0000k    8.958 -+------+------+------+------+------+------+------+-----a+-
   10.2329k    8.958  +      +      +      +      +      +      +      +     a+ 
   10.4713k    8.958  +      +      +      +      +      +      +      +     a+ 
   10.7152k    8.958  +      +      +      +      +      +      +      +     a+ 
   10.9648k    8.958  +      +      +      +      +      +      +      +     a+ 
   11.2202k    8.958  +      +      +      +      +      +      +      +     a+ 
   11.4815k    8.958  +      +      +      +      +      +      +      +     a+ 
   11.7490k    8.958  +      +      +      +      +      +      +      +     a+ 
   12.0226k    8.958  +      +      +      +      +      +      +      +     a+ 
   12.3027k    8.958  +      +      +      +      +      +      +      +     a+ 
   12.5893k    8.958 -+------+------+------+------+------+------+------+-----a+-
   12.8825k    8.958  +      +      +      +      +      +      +      +     a+ 
   13.1826k    8.958  +      +      +      +      +      +      +      +     a+ 
   13.4896k    8.958  +      +      +      +      +      +      +      +     a+ 
   13.8038k    8.958  +      +      +      +      +      +      +      +     a+ 
   14.1254k    8.958  +      +      +      +      +      +      +      +     a+ 
   14.4544k    8.958  +      +      +      +      +      +      +      +     a+ 
   14.7911k    8.958  +      +      +      +      +      +      +      +     a+ 
   15.1356k    8.958  +      +      +      +      +      +      +      +     a+ 
   15.4882k    8.958  +      +      +      +      +      +      +      +     a+ 
   15.8489k    8.958 -+------+------+------+------+------+------+------+-----a+-
   16.2181k    8.958  +      +      +      +      +      +      +      +     a+ 
   16.5959k    8.958  +      +      +      +      +      +      +      +     a+ 
   16.9824k    8.958  +      +      +      +      +      +      +      +     a+ 
   17.3780k    8.958  +      +      +      +      +      +      +      +     a+ 
   17.7828k    8.958  +      +      +      +      +      +      +      +     a+ 
   18.1970k    8.958  +      +      +      +      +      +      +      +     a+ 
   18.6209k    8.958  +      +      +      +      +      +      +      +     a+ 
   19.0546k    8.958  +      +      +      +      +      +      +      +     a+ 
   19.4984k    8.958  +      +      +      +      +      +      +      +     a+ 
   19.9526k    8.958 -+------+------+------+------+------+------+------+-----a+-
   20.4174k    8.958  +      +      +      +      +      +      +      +     a+ 
   20.8930k    8.958  +      +      +      +      +      +      +      +     a+ 
   21.3796k    8.958  +      +      +      +      +      +      +      +     a+ 
   21.8776k    8.958  +      +      +      +      +      +      +      +     a+ 
   22.3872k    8.958  +      +      +      +      +      +      +      +     a+ 
   22.9087k    8.958  +      +      +      +      +      +      +      +     a+ 
   23.4423k    8.958  +      +      +      +      +      +      +      +     a+ 
   23.9883k    8.958  +      +      +      +      +      +      +      +     a+ 
   24.5471k    8.958  +      +      +      +      +      +      +      +     a+ 
   25.1189k    8.958 -+------+------+------+------+------+------+------+-----a+-
   25.7040k    8.958  +      +      +      +      +      +      +      +     a+ 
   26.3027k    8.958  +      +      +      +      +      +      +      +     a+ 
   26.9153k    8.958  +      +      +      +      +      +      +      +     a+ 
   27.5423k    8.958  +      +      +      +      +      +      +      +     a+ 
   28.1838k    8.958  +      +      +      +      +      +      +      +     a+ 
   28.8403k    8.958  +      +      +      +      +      +      +      +     a+ 
   29.5121k    8.958  +      +      +      +      +      +      +      +     a+ 
   30.1995k    8.958  +      +      +      +      +      +      +      +     a+ 
   30.9030k    8.958  +      +      +      +      +      +      +      +     a+ 
   31.6228k    8.958 -+------+------+------+------+------+------+------+-----a+-
   32.3594k    8.958  +      +      +      +      +      +      +      +     a+ 
   33.1131k    8.958  +      +      +      +      +      +      +      +     a+ 
   33.8844k    8.958  +      +      +      +      +      +      +      +     a+ 
   34.6737k    8.958  +      +      +      +      +      +      +      +     a+ 
   35.4813k    8.958  +      +      +      +      +      +      +      +     a+ 
   36.3078k    8.958  +      +      +      +      +      +      +      +     a+ 
   37.1535k    8.958  +      +      +      +      +      +      +      +     a+ 
   38.0189k    8.958  +      +      +      +      +      +      +      +     a+ 
   38.9045k    8.958  +      +      +      +      +      +      +      +     a+ 
   39.8107k    8.958 -+------+------+------+------+------+------+------+-----a+-
   40.7380k    8.958  +      +      +      +      +      +      +      +     a+ 
   41.6869k    8.958  +      +      +      +      +      +      +      +     a+ 
   42.6580k    8.958  +      +      +      +      +      +      +      +     a+ 
   43.6516k    8.958  +      +      +      +      +      +      +      +     a+ 
   44.6684k    8.958  +      +      +      +      +      +      +      +     a+ 
   45.7088k    8.958  +      +      +      +      +      +      +      +     a+ 
   46.7735k    8.958  +      +      +      +      +      +      +      +     a+ 
   47.8630k    8.958  +      +      +      +      +      +      +      +     a+ 
   48.9779k    8.958  +      +      +      +      +      +      +      +     a+ 
   50.1187k    8.958 -+------+------+------+------+------+------+------+-----a+-
   51.2861k    8.958  +      +      +      +      +      +      +      +     a+ 
   52.4807k    8.958  +      +      +      +      +      +      +      +     a+ 
   53.7032k    8.958  +      +      +      +      +      +      +      +     a+ 
   54.9541k    8.958  +      +      +      +      +      +      +      +     a+ 
   56.2341k    8.958  +      +      +      +      +      +      +      +     a+ 
   57.5440k    8.958  +      +      +      +      +      +      +      +     a+ 
   58.8844k    8.958  +      +      +      +      +      +      +      +     a+ 
   60.2560k    8.958  +      +      +      +      +      +      +      +     a+ 
   61.6595k    8.958  +      +      +      +      +      +      +      +     a+ 
   63.0957k    8.958 -+------+------+------+------+------+------+------+-----a+-
   64.5654k    8.958  +      +      +      +      +      +      +      +     a+ 
   66.0693k    8.958  +      +      +      +      +      +      +      +     a+ 
   67.6083k    8.958  +      +      +      +      +      +      +      +     a+ 
   69.1831k    8.958  +      +      +      +      +      +      +      +     a+ 
   70.7946k    8.958  +      +      +      +      +      +      +      +     a+ 
   72.4436k    8.958  +      +      +      +      +      +      +      +     a+ 
   74.1310k    8.958  +      +      +      +      +      +      +      +     a+ 
   75.8578k    8.958  +      +      +      +      +      +      +      +     a+ 
   77.6247k    8.958  +      +      +      +      +      +      +      +     a+ 
   79.4328k    8.958 -+------+------+------+------+------+------+------+-----a+-
   81.2831k    8.958  +      +      +      +      +      +      +      +     a+ 
   83.1764k    8.958  +      +      +      +      +      +      +      +     a+ 
   85.1138k    8.958  +      +      +      +      +      +      +      +     a+ 
   87.0964k    8.958  +      +      +      +      +      +      +      +     a+ 
   89.1251k    8.958  +      +      +      +      +      +      +      +     a+ 
   91.2011k    8.958  +      +      +      +      +      +      +      +     a+ 
   93.3254k    8.958  +      +      +      +      +      +      +      +     a+ 
   95.4993k    8.958  +      +      +      +      +      +      +      +     a+ 
   97.7237k    8.958  +      +      +      +      +      +      +      +     a+ 
  100.0000k    8.958 -+------+------+------+------+------+------+------+-----a+-
  102.3293k    8.958  +      +      +      +      +      +      +      +     a+ 
  104.7129k    8.958  +      +      +      +      +      +      +      +     a+ 
  107.1519k    8.958  +      +      +      +      +      +      +      +     a+ 
  109.6478k    8.958  +      +      +      +      +      +      +      +     a+ 
  112.2018k    8.958  +      +      +      +      +      +      +      +     a+ 
  114.8154k    8.958  +      +      +      +      +      +      +      +     a+ 
  117.4898k    8.958  +      +      +      +      +      +      +      +     a+ 
  120.2264k    8.958  +      +      +      +      +      +      +      +     a+ 
  123.0269k    8.958  +      +      +      +      +      +      +      +     a+ 
  125.8925k    8.958 -+------+------+------+------+------+------+------+-----a+-
  128.8250k    8.958  +      +      +      +      +      +      +      +     a+ 
  131.8257k    8.958  +      +      +      +      +      +      +      +     a+ 
  134.8963k    8.958  +      +      +      +      +      +      +      +     a+ 
  138.0384k    8.958  +      +      +      +      +      +      +      +     a+ 
  141.2538k    8.958  +      +      +      +      +      +      +      +     a+ 
  144.5440k    8.958  +      +      +      +      +      +      +      +     a+ 
  147.9108k    8.958  +      +      +      +      +      +      +      +     a+ 
  151.3561k    8.958  +      +      +      +      +      +      +      +     a+ 
  154.8817k    8.958  +      +      +      +      +      +      +      +     a+ 
  158.4893k    8.958 -+------+------+------+------+------+------+------+-----a+-
  162.1810k    8.958  +      +      +      +      +      +      +      +     a+ 
  165.9587k    8.958  +      +      +      +      +      +      +      +     a+ 
  169.8244k    8.958  +      +      +      +      +      +      +      +     a+ 
  173.7801k    8.958  +      +      +      +      +      +      +      +     a+ 
  177.8279k    8.958  +      +      +      +      +      +      +      +     a+ 
  181.9701k    8.958  +      +      +      +      +      +      +      +     a+ 
  186.2087k    8.958  +      +      +      +      +      +      +      +     a+ 
  190.5461k    8.958  +      +      +      +      +      +      +      +     a+ 
  194.9845k    8.958  +      +      +      +      +      +      +      +     a+ 
  199.5262k    8.958 -+------+------+------+------+------+------+------+-----a+-
  204.1738k    8.958  +      +      +      +      +      +      +      +     a+ 
  208.9296k    8.958  +      +      +      +      +      +      +      +     a+ 
  213.7962k    8.958  +      +      +      +      +      +      +      +     a+ 
  218.7762k    8.958  +      +      +      +      +      +      +      +     a+ 
  223.8721k    8.958  +      +      +      +      +      +      +      +     a+ 
  229.0868k    8.958  +      +      +      +      +      +      +      +     a+ 
  234.4229k    8.958  +      +      +      +      +      +      +      +     a+ 
  239.8833k    8.958  +      +      +      +      +      +      +      +     a+ 
  245.4709k    8.958  +      +      +      +      +      +      +      +     a+ 
  251.1886k    8.958 -+------+------+------+------+------+------+------+-----a+-
  257.0396k    8.958  +      +      +      +      +      +      +      +     a+ 
  263.0268k    8.958  +      +      +      +      +      +      +      +     a+ 
  269.1535k    8.958  +      +      +      +      +      +      +      +     a+ 
  275.4229k    8.958  +      +      +      +      +      +      +      +     a+ 
  281.8383k    8.958  +      +      +      +      +      +      +      +     a+ 
  288.4032k    8.958  +      +      +      +      +      +      +      +     a+ 
  295.1209k    8.958  +      +      +      +      +      +      +      +     a+ 
  301.9952k    8.958  +      +      +      +      +      +      +      +     a+ 
  309.0295k    8.958  +      +      +      +      +      +      +      +     a+ 
  316.2278k    8.958 -+------+------+------+------+------+------+------+-----a+-
  323.5937k    8.958  +      +      +      +      +      +      +      +     a+ 
  331.1311k    8.958  +      +      +      +      +      +      +      +     a+ 
  338.8442k    8.958  +      +      +      +      +      +      +      +     a+ 
  346.7369k    8.958  +      +      +      +      +      +      +      +     a+ 
  354.8134k    8.958  +      +      +      +      +      +      +      +     a+ 
  363.0781k    8.958  +      +      +      +      +      +      +      +     a+ 
  371.5352k    8.958  +      +      +      +      +      +      +      +     a+ 
  380.1894k    8.958  +      +      +      +      +      +      +      +     a+ 
  389.0451k    8.958  +      +      +      +      +      +      +      +     a+ 
  398.1072k    8.958 -+------+------+------+------+------+------+------+-----a+-
  407.3803k    8.958  +      +      +      +      +      +      +      +     a+ 
  416.8694k    8.958  +      +      +      +      +      +      +      +     a+ 
  426.5795k    8.958  +      +      +      +      +      +      +      +     a+ 
  436.5158k    8.958  +      +      +      +      +      +      +      +     a+ 
  446.6836k    8.958  +      +      +      +      +      +      +      +     a+ 
  457.0882k    8.958  +      +      +      +      +      +      +      +     a+ 
  467.7351k    8.958  +      +      +      +      +      +      +      +     a+ 
  478.6301k    8.958  +      +      +      +      +      +      +      +     a+ 
  489.7788k    8.958  +      +      +      +      +      +      +      +     a+ 
  501.1872k    8.958 -+------+------+------+------+------+------+------+-----a+-
  512.8614k    8.958  +      +      +      +      +      +      +      +     a+ 
  524.8075k    8.958  +      +      +      +      +      +      +      +     a+ 
  537.0318k    8.958  +      +      +      +      +      +      +      +     a+ 
  549.5409k    8.958  +      +      +      +      +      +      +      +     a+ 
  562.3413k    8.958  +      +      +      +      +      +      +      +     a+ 
  575.4399k    8.958  +      +      +      +      +      +      +      +     a+ 
  588.8437k    8.958  +      +      +      +      +      +      +      +     a+ 
  602.5596k    8.958  +      +      +      +      +      +      +      +     a+ 
  616.5950k    8.958  +      +      +      +      +      +      +      +     a+ 
  630.9573k    8.958 -+------+------+------+------+------+------+------+-----a+-
  645.6542k    8.958  +      +      +      +      +      +      +      +     a+ 
  660.6934k    8.958  +      +      +      +      +      +      +      +     a+ 
  676.0830k    8.958  +      +      +      +      +      +      +      +     a+ 
  691.8310k    8.958  +      +      +      +      +      +      +      +     a+ 
  707.9458k    8.958  +      +      +      +      +      +      +      +     a+ 
  724.4360k    8.958  +      +      +      +      +      +      +      +     a+ 
  741.3102k    8.958  +      +      +      +      +      +      +      +     a+ 
  758.5776k    8.958  +      +      +      +      +      +      +      +     a+ 
  776.2471k    8.958  +      +      +      +      +      +      +      +     a+ 
  794.3282k    8.957 -+------+------+------+------+------+------+------+-----a+-
  812.8305k    8.957  +      +      +      +      +      +      +      +     a+ 
  831.7638k    8.957  +      +      +      +      +      +      +      +     a+ 
  851.1380k    8.957  +      +      +      +      +      +      +      +     a+ 
  870.9636k    8.957  +      +      +      +      +      +      +      +     a+ 
  891.2509k    8.957  +      +      +      +      +      +      +      +     a+ 
  912.0108k    8.957  +      +      +      +      +      +      +      +     a+ 
  933.2543k    8.957  +      +      +      +      +      +      +      +     a+ 
  954.9926k    8.957  +      +      +      +      +      +      +      +     a+ 
  977.2372k    8.957  +      +      +      +      +      +      +      +     a+ 
    1.0000x    8.957 -+------+------+------+------+------+------+------+-----a+-
    1.0233x    8.957  +      +      +      +      +      +      +      +     a+ 
    1.0471x    8.957  +      +      +      +      +      +      +      +     a+ 
    1.0715x    8.957  +      +      +      +      +      +      +      +     a+ 
    1.0965x    8.957  +      +      +      +      +      +      +      +     a+ 
    1.1220x    8.957  +      +      +      +      +      +      +      +     a+ 
    1.1482x    8.957  +      +      +      +      +      +      +      +     a+ 
    1.1749x    8.957  +      +      +      +      +      +      +      +     a+ 
    1.2023x    8.957  +      +      +      +      +      +      +      +     a+ 
    1.2303x    8.957  +      +      +      +      +      +      +      +     a+ 
    1.2589x    8.956 -+------+------+------+------+------+------+------+-----a+-
    1.2882x    8.956  +      +      +      +      +      +      +      +     a+ 
    1.3183x    8.956  +      +      +      +      +      +      +      +     a+ 
    1.3490x    8.956  +      +      +      +      +      +      +      +     a+ 
    1.3804x    8.956  +      +      +      +      +      +      +      +     a+ 
    1.4125x    8.956  +      +      +      +      +      +      +      +     a+ 
    1.4454x    8.956  +      +      +      +      +      +      +      +     a+ 
    1.4791x    8.956  +      +      +      +      +      +      +      +     a+ 
    1.5136x    8.956  +      +      +      +      +      +      +      +     a+ 
    1.5488x    8.956  +      +      +      +      +      +      +      +     a+ 
    1.5849x    8.955 -+------+------+------+------+------+------+------+-----a+-
    1.6218x    8.955  +      +      +      +      +      +      +      +     a+ 
    1.6596x    8.955  +      +      +      +      +      +      +      +     a+ 
    1.6982x    8.955  +      +      +      +      +      +      +      +     a+ 
    1.7378x    8.955  +      +      +      +      +      +      +      +     a+ 
    1.7783x    8.955  +      +      +      +      +      +      +      +     a+ 
    1.8197x    8.955  +      +      +      +      +      +      +      +     a+ 
    1.8621x    8.954  +      +      +      +      +      +      +      +     a+ 
    1.9055x    8.954  +      +      +      +      +      +      +      +     a+ 
    1.9498x    8.954  +      +      +      +      +      +      +      +     a+ 
    1.9953x    8.954 -+------+------+------+------+------+------+------+-----a+-
    2.0417x    8.954  +      +      +      +      +      +      +      +     a+ 
    2.0893x    8.953  +      +      +      +      +      +      +      +     a+ 
    2.1380x    8.953  +      +      +      +      +      +      +      +     a+ 
    2.1878x    8.953  +      +      +      +      +      +      +      +     a+ 
    2.2387x    8.953  +      +      +      +      +      +      +      +     a+ 
    2.2909x    8.952  +      +      +      +      +      +      +      +     a+ 
    2.3442x    8.952  +      +      +      +      +      +      +      +     a+ 
    2.3988x    8.952  +      +      +      +      +      +      +      +     a+ 
    2.4547x    8.952  +      +      +      +      +      +      +      +     a+ 
    2.5119x    8.951 -+------+------+------+------+------+------+------+-----a+-
    2.5704x    8.951  +      +      +      +      +      +      +      +     a+ 
    2.6303x    8.951  +      +      +      +      +      +      +      +     a+ 
    2.6915x    8.950  +      +      +      +      +      +      +      +     a+ 
    2.7542x    8.950  +      +      +      +      +      +      +      +     a+ 
    2.8184x    8.949  +      +      +      +      +      +      +      +     a+ 
    2.8840x    8.949  +      +      +      +      +      +      +      +     a+ 
    2.9512x    8.949  +      +      +      +      +      +      +      +     a+ 
    3.0200x    8.948  +      +      +      +      +      +      +      +     a+ 
    3.0903x    8.948  +      +      +      +      +      +      +      +     a+ 
    3.1623x    8.947 -+------+------+------+------+------+------+------+-----a+-
    3.2359x    8.947  +      +      +      +      +      +      +      +     a+ 
    3.3113x    8.946  +      +      +      +      +      +      +      +     a+ 
    3.3884x    8.946  +      +      +      +      +      +      +      +     a+ 
    3.4674x    8.945  +      +      +      +      +      +      +      +     a+ 
    3.5481x    8.944  +      +      +      +      +      +      +      +     a+ 
    3.6308x    8.944  +      +      +      +      +      +      +      +     a+ 
    3.7154x    8.943  +      +      +      +      +      +      +      +     a+ 
    3.8019x    8.942  +      +      +      +      +      +      +      +     a+ 
    3.8905x    8.942  +      +      +      +      +      +      +      +     a+ 
    3.9811x    8.941 -+------+------+------+------+------+------+------+-----a+-
    4.0738x    8.940  +      +      +      +      +      +      +      +     a+ 
    4.1687x    8.939  +      +      +      +      +      +      +      +     a+ 
    4.2658x    8.938  +      +      +      +      +      +      +      +     a+ 
    4.3652x    8.937  +      +      +      +      +      +      +      +     a+ 
    4.4668x    8.936  +      +      +      +      +      +      +      +     a+ 
    4.5709x    8.935  +      +      +      +      +      +      +      +     a+ 
    4.6774x    8.934  +      +      +      +      +      +      +      +     a+ 
    4.7863x    8.933  +      +      +      +      +      +      +      +     a+ 
    4.8978x    8.932  +      +      +      +      +      +      +      +     a+ 
    5.0119x    8.931 -+------+------+------+------+------+------+------+-----a+-
    5.1286x    8.929  +      +      +      +      +      +      +      +     a+ 
    5.2481x    8.928  +      +      +      +      +      +      +      +    a + 
    5.3703x    8.927  +      +      +      +      +      +      +      +    a + 
    5.4954x    8.925  +      +      +      +      +      +      +      +    a + 
    5.6234x    8.924  +      +      +      +      +      +      +      +    a + 
    5.7544x    8.922  +      +      +      +      +      +      +      +    a + 
    5.8884x    8.920  +      +      +      +      +      +      +      +    a + 
    6.0256x    8.918  +      +      +      +      +      +      +      +    a + 
    6.1660x    8.917  +      +      +      +      +      +      +      +    a + 
    6.3096x    8.915 -+------+------+------+------+------+------+------+----a-+-
    6.4565x    8.913  +      +      +      +      +      +      +      +    a + 
    6.6069x    8.910  +      +      +      +      +      +      +      +    a + 
    6.7608x    8.908  +      +      +      +      +      +      +      +    a + 
    6.9183x    8.906  +      +      +      +      +      +      +      +    a + 
    7.0795x    8.903  +      +      +      +      +      +      +      +    a + 
    7.2444x    8.901  +      +      +      +      +      +      +      +    a + 
    7.4131x    8.898  +      +      +      +      +      +      +      +    a + 
    7.5858x    8.895  +      +      +      +      +      +      +      +    a + 
    7.7625x    8.892  +      +      +      +      +      +      +      +    a + 
    7.9433x    8.889 -+------+------+------+------+------+------+------+----a-+-
    8.1283x    8.886  +      +      +      +      +      +      +      +    a + 
    8.3176x    8.883  +      +      +      +      +      +      +      +    a + 
    8.5114x    8.879  +      +      +      +      +      +      +      +    a + 
    8.7096x    8.876  +      +      +      +      +      +      +      +    a + 
    8.9125x    8.872  +      +      +      +      +      +      +      +    a + 
    9.1201x    8.868  +      +      +      +      +      +      +      +    a + 
    9.3325x    8.863  +      +      +      +      +      +      +      +    a + 
    9.5499x    8.859  +      +      +      +      +      +      +      +    a + 
    9.7724x    8.854  +      +      +      +      +      +      +      +    a + 
   10.0000x    8.850 -+------+------+------+------+------+------+------+----a-+-
   10.2329x    8.844  +      +      +      +      +      +      +      +    a + 
   10.4713x    8.839  +      +      +      +      +      +      +      +    a + 
   10.7152x    8.834  +      +      +      +      +      +      +      +    a + 
   10.9648x    8.828  +      +      +      +      +      +      +      +    a + 
   11.2202x    8.822  +      +      +      +      +      +      +      +    a + 
   11.4815x    8.815  +      +      +      +      +      +      +      +    a + 
   11.7490x    8.809  +      +      +      +      +      +      +      +    a + 
   12.0226x    8.802  +      +      +      +      +      +      +      +    a + 
   12.3027x    8.795  +      +      +      +      +      +      +      +    a + 
   12.5893x    8.787 -+------+------+------+------+------+------+------+----a-+-
   12.8825x    8.779  +      +      +      +      +      +      +      +    a + 
   13.1826x    8.771  +      +      +      +      +      +      +      +    a + 
   13.4896x    8.762  +      +      +      +      +      +      +      +    a + 
   13.8038x    8.753  +      +      +      +      +      +      +      +    a + 
   14.1254x    8.744  +      +      +      +      +      +      +      +    a + 
   14.4544x    8.734  +      +      +      +      +      +      +      +    a + 
   14.7911x    8.724  +      +      +      +      +      +      +      +    a + 
   15.1356x    8.713  +      +      +      +      +      +      +      +    a + 
   15.4882x    8.702  +      +      +      +      +      +      +      +    a + 
   15.8489x    8.690 -+------+------+------+------+------+------+------+----a-+-
   16.2181x    8.677  +      +      +      +      +      +      +      +    a + 
   16.5959x    8.665  +      +      +      +      +      +      +      +    a + 
   16.9824x    8.651  +      +      +      +      +      +      +      +    a + 
   17.3780x    8.637  +      +      +      +      +      +      +      +    a + 
   17.7828x    8.623  +      +      +      +      +      +      +      +    a + 
   18.1970x    8.607  +      +      +      +      +      +      +      +    a + 
   18.6209x    8.591  +      +      +      +      +      +      +      +    a + 
   19.0546x    8.575  +      +      +      +      +      +      +      +    a + 
   19.4984x    8.558  +      +      +      +      +      +      +      +    a + 
   19.9526x    8.539 -+------+------+------+------+------+------+------+----a-+-
   20.4174x    8.521  +      +      +      +      +      +      +      +    a + 
   20.8930x    8.501  +      +      +      +      +      +      +      +    a + 
   21.3796x    8.480  +      +      +      +      +      +      +      +    a + 
   21.8776x    8.459  +      +      +      +      +      +      +      +    a + 
   22.3872x    8.437  +      +      +      +      +      +      +      +    a + 
   22.9087x    8.413  +      +      +      +      +      +      +      +    a + 
   23.4423x    8.389  +      +      +      +      +      +      +      +    a + 
   23.9883x    8.364  +      +      +      +      +      +      +      +    a + 
   24.5471x    8.338  +      +      +      +      +      +      +      +    a + 
   25.1189x    8.310 -+------+------+------+------+------+------+------+----a-+-
   25.7040x    8.282  +      +      +      +      +      +      +      +    a + 
   26.3027x    8.252  +      +      +      +      +      +      +      +    a + 
   26.9153x    8.221  +      +      +      +      +      +      +      +    a + 
   27.5423x    8.189  +      +      +      +      +      +      +      +   a  + 
   28.1838x    8.156  +      +      +      +      +      +      +      +   a  + 
   28.8403x    8.121  +      +      +      +      +      +      +      +   a  + 
   29.5121x    8.085  +      +      +      +      +      +      +      +   a  + 
   30.1995x    8.047  +      +      +      +      +      +      +      +   a  + 
   30.9030x    8.008  +      +      +      +      +      +      +      +   a  + 
   31.6228x    7.968 -+------+------+------+------+------+------+------+---a--+-
   32.3594x    7.926  +      +      +      +      +      +      +      +   a  + 
   33.1131x    7.882  +      +      +      +      +      +      +      +   a  + 
   33.8844x    7.837  +      +      +      +      +      +      +      +   a  + 
   34.6737x    7.790  +      +      +      +      +      +      +      +   a  + 
   35.4813x    7.741  +      +      +      +      +      +      +      +   a  + 
   36.3078x    7.691  +      +      +      +      +      +      +      +   a  + 
   37.1535x    7.638  +      +      +      +      +      +      +      +   a  + 
   38.0189x    7.584  +      +      +      +      +      +      +      +   a  + 
   38.9045x    7.528  +      +      +      +      +      +      +      +   a  + 
   39.8107x    7.470 -+------+------+------+------+------+------+------+--a---+-
   40.7380x    7.409  +      +      +      +      +      +      +      +  a   + 
   41.6869x    7.347  +      +      +      +      +      +      +      +  a   + 
   42.6580x    7.283  +      +      +      +      +      +      +      +  a   + 
   43.6516x    7.216  +      +      +      +      +      +      +      +  a   + 
   44.6684x    7.148  +      +      +      +      +      +      +      +  a   + 
   45.7088x    7.077  +      +      +      +      +      +      +      +  a   + 
   46.7735x    7.004  +      +      +      +      +      +      +      +  a   + 
   47.8630x    6.928  +      +      +      +      +      +      +      +  a   + 
   48.9779x    6.850  +      +      +      +      +      +      +      +  a   + 
   50.1187x    6.770 -+------+------+------+------+------+------+------+-a----+-
   51.2861x    6.687  +      +      +      +      +      +      +      + a    + 
   52.4807x    6.602  +      +      +      +      +      +      +      + a    + 
   53.7032x    6.514  +      +      +      +      +      +      +      + a    + 
   54.9541x    6.424  +      +      +      +      +      +      +      + a    + 
   56.2341x    6.331  +      +      +      +      +      +      +      + a    + 
   57.5440x    6.235  +      +      +      +      +      +      +      + a    + 
   58.8844x    6.137  +      +      +      +      +      +      +      + a    + 
   60.2560x    6.036  +      +      +      +      +      +      +      +a     + 
   61.6595x    5.933  +      +      +      +      +      +      +      +a     + 
   63.0957x    5.827 -+------+------+------+------+------+------+------+a-----+-
   64.5654x    5.718  +      +      +      +      +      +      +      +a     + 
   66.0693x    5.606  +      +      +      +      +      +      +      +a     + 
   67.6083x    5.492  +      +      +      +      +      +      +      +a     + 
   69.1831x    5.375  +      +      +      +      +      +      +      +a     + 
   70.7946x    5.255  +      +      +      +      +      +      +      a      + 
   72.4436x    5.132  +      +      +      +      +      +      +      a      + 
   74.1310x    5.006  +      +      +      +      +      +      +      a      + 
   75.8578x    4.878  +      +      +      +      +      +      +      a      + 
   77.6247x    4.746  +      +      +      +      +      +      +      a      + 
   79.4328x    4.612 -+------+------+------+------+------+------+-----a+------+-
   81.2831x    4.475  +      +      +      +      +      +      +     a+      + 
   83.1764x    4.335  +      +      +      +      +      +      +     a+      + 
   85.1138x    4.193  +      +      +      +      +      +      +     a+      + 
   87.0964x    4.047  +      +      +      +      +      +      +     a+      + 
   89.1251x    3.899  +      +      +      +      +      +      +    a +      + 
   91.2011x    3.747  +      +      +      +      +      +      +    a +      + 
   93.3254x    3.593  +      +      +      +      +      +      +    a +      + 
   95.4993x    3.436  +      +      +      +      +      +      +    a +      + 
   97.7237x    3.277  +      +      +      +      +      +      +    a +      + 
  100.0000x    3.114 -+------+------+------+------+------+------+---a--+------+-
  102.3293x    2.948  +      +      +      +      +      +      +   a  +      + 
  104.7129x    2.780  +      +      +      +      +      +      +   a  +      + 
  107.1519x    2.609  +      +      +      +      +      +      +   a  +      + 
  109.6478x    2.435  +      +      +      +      +      +      +  a   +      + 
  112.2018x    2.258  +      +      +      +      +      +      +  a   +      + 
  114.8154x    2.079  +      +      +      +      +      +      +  a   +      + 
  117.4898x    1.896  +      +      +      +      +      +      +  a   +      + 
  120.2264x    1.711  +      +      +      +      +      +      + a    +      + 
  123.0269x    1.523  +      +      +      +      +      +      + a    +      + 
  125.8925x    1.332 -+------+------+------+------+------+------+-a----+------+-
  128.8250x    1.139  +      +      +      +      +      +      + a    +      + 
  131.8257x  942.073m +      +      +      +      +      +      +a     +      + 
  134.8963x  742.848m +      +      +      +      +      +      +a     +      + 
  138.0384x  540.834m +      +      +      +      +      +      +a     +      + 
  141.2538x  336.031m +      +      +      +      +      +      a      +      + 
  144.5440x  128.441m +      +      +      +      +      +      a      +      + 
  147.9108x  -81.936m +      +      +      +      +      +      a      +      + 
  151.3561x -295.097m +      +      +      +      +      +      a      +      + 
  154.8817x -511.041m +      +      +      +      +      +     a+      +      + 
  158.4893x -729.769m-+------+------+------+------+------+-----a+------+------+-
  162.1810x -951.279m +      +      +      +      +      +     a+      +      + 
  165.9587x   -1.176  +      +      +      +      +      +    a +      +      + 
  169.8244x   -1.403  +      +      +      +      +      +    a +      +      + 
  173.7801x   -1.632  +      +      +      +      +      +    a +      +      + 
  177.8279x   -1.865  +      +      +      +      +      +   a  +      +      + 
  181.9701x   -2.101  +      +      +      +      +      +   a  +      +      + 
  186.2087x   -2.339  +      +      +      +      +      +   a  +      +      + 
  190.5461x   -2.580  +      +      +      +      +      +  a   +      +      + 
  194.9845x   -2.823  +      +      +      +      +      +  a   +      +      + 
  199.5262x   -3.070 -+------+------+------+------+------+--a---+------+------+-
  204.1738x   -3.319  +      +      +      +      +      + a    +      +      + 
  208.9296x   -3.571  +      +      +      +      +      + a    +      +      + 
  213.7962x   -3.826  +      +      +      +      +      + a    +      +      + 
  218.7762x   -4.084  +      +      +      +      +      +a     +      +      + 
  223.8721x   -4.344  +      +      +      +      +      +a     +      +      + 
  229.0868x   -4.607  +      +      +      +      +      +a     +      +      + 
  234.4229x   -4.872  +      +      +      +      +      a      +      +      + 
  239.8833x   -5.141  +      +      +      +      +      a      +      +      + 
  245.4709x   -5.412  +      +      +      +      +     a+      +      +      + 
  251.1886x   -5.686 -+------+------+------+------+-----a+------+------+------+-
  257.0396x   -5.962  +      +      +      +      +     a+      +      +      + 
  263.0268x   -6.241  +      +      +      +      +    a +      +      +      + 
  269.1535x   -6.523  +      +      +      +      +    a +      +      +      + 
  275.4229x   -6.807  +      +      +      +      +   a  +      +      +      + 
  281.8383x   -7.093  +      +      +      +      +   a  +      +      +      + 
  288.4032x   -7.383  +      +      +      +      +   a  +      +      +      + 
  295.1209x   -7.674  +      +      +      +      +  a   +      +      +      + 
  301.9952x   -7.968  +      +      +      +      +  a   +      +      +      + 
  309.0295x   -8.265  +      +      +      +      + a    +      +      +      + 
  316.2278x   -8.564 -+------+------+------+------+-a----+------+------+------+-
  323.5937x   -8.865  +      +      +      +      + a    +      +      +      + 
  331.1311x   -9.169  +      +      +      +      +a     +      +      +      + 
  338.8442x   -9.475  +      +      +      +      +a     +      +      +      + 
  346.7369x   -9.783  +      +      +      +      a      +      +      +      + 
  354.8134x  -10.093  +      +      +      +      a      +      +      +      + 
  363.0781x  -10.405  +      +      +      +     a+      +      +      +      + 
  371.5352x  -10.720  +      +      +      +     a+      +      +      +      + 
  380.1894x  -11.036  +      +      +      +     a+      +      +      +      + 
  389.0451x  -11.354  +      +      +      +    a +      +      +      +      + 
  398.1072x  -11.674 -+------+------+------+----a-+------+------+------+------+-
  407.3803x  -11.996  +      +      +      +   a  +      +      +      +      + 
  416.8694x  -12.320  +      +      +      +   a  +      +      +      +      + 
  426.5795x  -12.646  +      +      +      +  a   +      +      +      +      + 
  436.5158x  -12.973  +      +      +      +  a   +      +      +      +      + 
  446.6836x  -13.301  +      +      +      + a    +      +      +      +      + 
  457.0882x  -13.631  +      +      +      + a    +      +      +      +      + 
  467.7351x  -13.963  +      +      +      +a     +      +      +      +      + 
  478.6301x  -14.296  +      +      +      +a     +      +      +      +      + 
  489.7788x  -14.630  +      +      +      +a     +      +      +      +      + 
  501.1872x  -14.966 -+------+------+------a------+------+------+------+------+-
  512.8614x  -15.302  +      +      +      a      +      +      +      +      + 
  524.8075x  -15.640  +      +      +     a+      +      +      +      +      + 
  537.0318x  -15.979  +      +      +     a+      +      +      +      +      + 
  549.5409x  -16.318  +      +      +    a +      +      +      +      +      + 
  562.3413x  -16.659  +      +      +    a +      +      +      +      +      + 
  575.4399x  -17.000  +      +      +   a  +      +      +      +      +      + 
  588.8437x  -17.342  +      +      +   a  +      +      +      +      +      + 
  602.5596x  -17.685  +      +      +  a   +      +      +      +      +      + 
  616.5950x  -18.028  +      +      +  a   +      +      +      +      +      + 
  630.9573x  -18.371 -+------+------+-a----+------+------+------+------+------+-
  645.6542x  -18.716  +      +      + a    +      +      +      +      +      + 
  660.6934x  -19.060  +      +      +a     +      +      +      +      +      + 
  676.0830x  -19.405  +      +      +a     +      +      +      +      +      + 
  691.8310x  -19.750  +      +      a      +      +      +      +      +      + 
  707.9458x  -20.095  +      +      a      +      +      +      +      +      + 
  724.4360x  -20.440  +      +     a+      +      +      +      +      +      + 
  741.3102x  -20.785  +      +     a+      +      +      +      +      +      + 
  758.5776x  -21.129  +      +    a +      +      +      +      +      +      + 
  776.2471x  -21.474  +      +    a +      +      +      +      +      +      + 
  794.3282x  -21.818 -+------+---a--+------+------+------+------+------+------+-
  812.8305x  -22.163  +      +   a  +      +      +      +      +      +      + 
  831.7638x  -22.506  +      +  a   +      +      +      +      +      +      + 
  851.1380x  -22.849  +      +  a   +      +      +      +      +      +      + 
  870.9636x  -23.192  +      +  a   +      +      +      +      +      +      + 
  891.2509x  -23.534  +      + a    +      +      +      +      +      +      + 
  912.0108x  -23.875  +      + a    +      +      +      +      +      +      + 
  933.2543x  -24.216  +      +a     +      +      +      +      +      +      + 
  954.9926x  -24.555  +      +a     +      +      +      +      +      +      + 
  977.2372x  -24.894  +      a      +      +      +      +      +      +      + 
    1.0000g  -25.232 -+------a------+------+------+------+------+------+------+-
                      +             +             +             +             + 

b


          ***** job concluded
1****** HSPICE -- F-2011.09-SP2 32-BIT (Feb 27 2012) linux ******               
 ******  
 .title nmos

  ******  job statistics summary tnom=  25.000 temp=  25.000 *****
  
  
 ******  Machine Information  ******
 CPU:
 model name	: Intel(R) Xeon(R) CPU E3-1240 V2 @ 3.40GHz
 cpu MHz	: 1600.000
  
 OS:
 Linux version 2.6.32-358.23.2.el6.x86_64 (mockbuild@c6b9.bsys.dev.centos.org) (
 gcc version 4.4.7 20120313 (Red Hat 4.4.7-3) (GCC) ) #1 SMP Wed Oct 16 18:37:12
  UTC 2013


  ******  HSPICE Threads Information  ******

  Command Line Threads Count :     1
  Available CPU Count        :     8
  Actual Threads Count       :     1


  ******  Circuit Statistics  ******
  # nodes       =       6 # elements   =       7
  # resistors   =       2 # capacitors =       1 # inductors   =       0
  # mutual_inds =       0 # vccs       =       0 # vcvs        =       0
  # cccs        =       0 # ccvs       =       0 # volt_srcs   =       3
  # curr_srcs   =       0 # diodes     =       0 # bjts        =       0
  # jfets       =       0 # mosfets    =       1 # U elements  =       0
  # T elements  =       0 # W elements =       0 # B elements  =       0
  # S elements  =       0 # P elements =       0 # va device   =       0
  # vector_srcs =       0


  ******  Runtime Statistics (seconds)  ******

  analysis           time    # points   tot. iter  conv.iter
  op point           0.00           1           5
  ac analysis        0.00         601         601
  readin             0.01
  errchk             0.00
  setup              0.00
  output             0.01


           peak memory used         95.57 megabytes
           total cpu time            0.02 seconds
           total elapsed time        0.37 seconds
           job started at     19:25:51 12/01/2013
           job ended   at     19:25:51 12/01/2013


 lic: Release hspice token(s) 
