Using: /usr/local/apps/synopsys/current_hspice/hspice/linux/hspice nmos_diff_rload.sp
 ****** HSPICE -- F-2011.09-SP2 32-BIT (Feb 27 2012) linux ******               
  Copyright (C) 2011 Synopsys, Inc. All Rights Reserved.                        
  Unpublished-rights reserved under US copyright laws.
  This program is protected by law and is subject to the
  terms and conditions of the license agreement from Synopsys.
  Use of this program is your acceptance to be bound by the
  license agreement. HSPICE is the trademark of Synopsys, Inc.
  Input File: nmos_diff_rload.sp                                                
  Command line options: nmos_diff_rload.sp
 lic:  
 lic: FLEXlm: v10.8 
 lic: USER:   goynese              HOSTNAME: kec1130-14.engr.oregonstate.edu 
 lic: HOSTID: 24be0511c109         PID:      13757 
 lic: Using FLEXlm license file: 
 lic: 7188@license.eecs.oregonstate.edu 
 lic: Checkout 1 hspice 
 lic: License/Maintenance for hspice will expire on 11-aug-2014/2013.03 
 lic: 3(in_use)/50(total) FLOATING license(s) on SERVER license.eecs.oregonstate
 lic:   
 Init: read install configuration file: /usr/local/apps/synopsys/current_hspice/hspice/meta.cfg
1****** HSPICE -- F-2011.09-SP2 32-BIT (Feb 27 2012) linux ******               
 ******  
 .title nmos

  ******  mos   model parameters tnom=  25.000 temp=  25.000 *****
 ***************************************************************************
 ***        model parameters  model name:   0:n_18     model type:nmos   ***
 ***************************************************************************

   *** general parameters ***
    deriv=   0.           

   ***  level 49  model parameters  ***

      hspver=    2006.03               level=         49         
     version=        3.1            paramchk=          0         
      apwarn=          1                lite=          0         
      vgslim=          0             binUnit=          1         
      capMod=          2               xpart=        0.5         
      mobMod=          1              nqsMod=          0         
      stiMod=          0                 elm=          5         
    sfvtflag=          0                 tox=    4.1e-09 meter   
          xj=      1e-07 meter       binflag=          0         
        lmin=          0 meter          lmax=          0 meter   
        wmin=          0 meter          wmax=          0 meter   
        lref=          0 meter          wref=          0 meter   
        lint=7.65986e-09 meter          wint=          0 meter   
       lmult=          1               wmult=          1         
          ll=          0                 lln=          1         
          lw=          0                 lwn=          1         
         lwl=          0                  wl=          0         
         wln=          1                  ww=          0         
         wwn=          1                 wwl=          0         
         dwg=-1.17694e-08 m/V             dwb=1.96583e-08 m/V^1/2 
          xl=          0                  xw=     -1e-08         
          a0=          2                 ags=   0.428182 V^-1    
          b0=-4.43566e-09 meter            b1=     -1e-07 meter   
        keta=-0.00873409 V^-1           voff= -0.0909514 V       
       ngate=          0 cm^-3           vbx=          0 V       
         vbm=         -3 V                xt=   1.55e-07 meter   
        vth0=   0.376033 V               nch= 2.3549e+17 cm^-3   
        nsub=      6e+16 cm^-3           nlx=1.83658e-07 meter   
      gamma1=          0 V^-1/2       gamma2=          0 V^-1/2  
          k1=   0.598252 V^1/2            k2= 0.00204285         
          k3=      0.001                 k3b=    5.47338 V^-1    
          w0=      1e-07 meter          dvt0=    1.38283         
        dvt1=   0.374633                dvt2=  0.0524724 V^-1    
       dvt0w=          0 meter^-1      dvt1w=          0 meter^-1
       dvt2w=          0 V^-1           dsub= 0.00880778         
        eta0=  0.0029649                etab=9.02839e-05 V^-1    
          u0=    265.099 cm^2/V/sec         ua=-1.34288e-09 m/V     
          ub=2.21876e-18 (m/V)^2          uc=5.30227e-11 V^-1    
        vsat=      99674 m/sec            a1=0.000117788 v^-1    
          a2=          1               delta=       0.01 V       
        rdsw=        150 ohm-um         prwg=        0.5 V^-1    
        prwb=       -0.2 V^-1/2           wr=          1         
        pclm=   0.739383             pdiblc1=   0.240506         
     pdiblc2= 0.00238467             pdiblcb=       -0.1 V^-1    
      pscbe1=2.25061e+09 V/m          pscbe2=5.50405e-09 V/m     
       drout=   0.810147                pvag= 0.00820885         
     nfactor=    2.47421                cdsc=    0.00024 f/m^2   
       cdscb=          0 f/V/m^2       cdscd=          0 f/V/m^2 
         cit=          0 f/m^2        alpha0=          0 m/V     
       beta0=         30 V               dlc=7.65986e-09 meter   
         dwc=          0 meter           clc=      1e-07 meter   
         cle=        0.6                cgso=   7.68e-10 f/m     
        cgdo=   7.68e-10 f/m            cgbo=      1e-12 f/m     
        cgsl=          0 f/m            cgdl=          0 f/m     
      ckappa=        0.6                  cf=          0 f/m     
        tnom=     300.15 K               kt1=      -0.11 V       
        kt1l=          0                 kt2=      0.022         
         ute=       -1.5                 ua1=   4.31e-09 m/V     
         ub1=  -7.61e-18 (m/V)^2         uc1=   -5.6e-11 m/V^2   
          at=      33000 m/s             prt=          0         
         using Berkeley noise model       noiMod=          1         
        noia=      1e+20                noib=      50000         
        noic=   -1.4e-12                  em=    4.1e+07         
          ef=          1                  af=          1         
          kf=          0              gdsnoi=-1.23457e-29         
         using Hspice diodes            using ACM 
         acm=         0                 hdif=         0 meter    
        ldif=         0 meter             js=         0 amp/m^2  
         jsw=         0 amp/m            xti=         0          
           n=         1                   cj=0.00096236 f/m^2    
          mj=  0.380501                   pb=       0.8 V        
        cjsw=2.37186e-10 f/m             mjsw=  0.107791          
         php=       0.8 V               pbsw (not used)           
      cjgate=2.37186e-10 f/m            cjswg (not used)           
       mjswg (not used)                 pbswg (not used)           
       lketa=-0.00944713               wketa= 0.00500085         
       pketa=-0.00308008               pvth0=-0.000919017         
         pk2=0.000320258               peta0=9.33065e-05         
         pu0=    32.7094                 pua=1.35883e-10         
       pvsat=    2004.06               prdsw=         -5         
 

  
      
 *****************************************************************
 ******  option summary
 ******
 runlvl  = 3         bypass  = 2         
1****** HSPICE -- F-2011.09-SP2 32-BIT (Feb 27 2012) linux ******               
 ******  
 .title nmos

  ******  operating point information tnom=  25.000 temp=  25.000 *****
 ***** operating point status is all       simulation time is     0.     
    node    =voltage      node    =voltage      node    =voltage

 +0:drain   =   1.2209  0:gate    = 600.0000m 0:vdd     =   1.8000 
 +0:vin1    = 600.0000m


 **** voltage sources

 subckt                        
 element  0:vddx     0:vin1x   
  volts      1.8000   600.0000m
  current -579.1497u    0.     
  power      1.0425m    0.     

     total voltage source power dissipation=    1.0425m       watts



 **** resistors

 subckt                        
 element  0:r1       0:r2      
  r value    1.0000k    1.0000k
  v drop     0.      -579.1497m
  current    0.      -579.1497u
  power      0.       335.4144u



 **** mosfets


 subckt             
 element  0:m1      
 model    0:n_18    
 region     Saturati
  id       579.1497u
  ibs        0.     
  ibd        0.     
  vgs      600.0000m
  vds        1.2209 
  vbs        0.     
  vth      488.9891m
  vdsat     99.9223m
  vod      111.0109m
  beta      92.6323m
  gam eff  594.4119m
  gm         8.3567m
  gds      174.6708u
  gmb        2.0782m
  cdtot     96.1583f
  cgtot    169.4930f
  cstot    147.6539f
  cbtot    138.8192f
  cgs      115.7595f
  cgd       45.4229f



 ***************************************************
   ******   pole/zero analysis  
  
  
    input =  0:vin1x          output = v(drain)
  
       poles (rad/sec)                 poles ( hertz)
 real            imag            real            imag            
 -765.097x       0.              -121.769x       0.              
 -8.41944g       0.              -1.34000g       0.              
  
       zeros (rad/sec)                 zeros ( hertz)
 real            imag            real            imag            
 110.450g        0.              17.5787g        0.              
  
  ***** constant factor = 4.14907x
 ******  
 .title nmos

  ******  ac analysis tnom=  25.000 temp=  25.000 *****
x

        freq    volt db    
                   drain   
    1.00000k     11.0218   
    1.02329k     11.0218   
    1.04713k     11.0218   
    1.07152k     11.0218   
    1.09648k     11.0218   
    1.12202k     11.0218   
    1.14815k     11.0218   
    1.17490k     11.0218   
    1.20226k     11.0218   
    1.23027k     11.0218   
    1.25893k     11.0218   
    1.28825k     11.0218   
    1.31826k     11.0218   
    1.34896k     11.0218   
    1.38038k     11.0218   
    1.41254k     11.0218   
    1.44544k     11.0218   
    1.47911k     11.0218   
    1.51356k     11.0218   
    1.54882k     11.0218   
    1.58489k     11.0218   
    1.62181k     11.0218   
    1.65959k     11.0218   
    1.69824k     11.0218   
    1.73780k     11.0218   
    1.77828k     11.0218   
    1.81970k     11.0218   
    1.86209k     11.0218   
    1.90546k     11.0218   
    1.94984k     11.0218   
    1.99526k     11.0218   
    2.04174k     11.0218   
    2.08930k     11.0218   
    2.13796k     11.0218   
    2.18776k     11.0218   
    2.23872k     11.0218   
    2.29087k     11.0218   
    2.34423k     11.0218   
    2.39883k     11.0218   
    2.45471k     11.0218   
    2.51189k     11.0218   
    2.57040k     11.0218   
    2.63027k     11.0218   
    2.69153k     11.0218   
    2.75423k     11.0218   
    2.81838k     11.0218   
    2.88403k     11.0218   
    2.95121k     11.0218   
    3.01995k     11.0218   
    3.09030k     11.0218   
    3.16228k     11.0218   
    3.23594k     11.0218   
    3.31131k     11.0218   
    3.38844k     11.0218   
    3.46737k     11.0218   
    3.54813k     11.0218   
    3.63078k     11.0218   
    3.71535k     11.0218   
    3.80189k     11.0218   
    3.89045k     11.0218   
    3.98107k     11.0218   
    4.07380k     11.0218   
    4.16869k     11.0218   
    4.26580k     11.0218   
    4.36516k     11.0218   
    4.46684k     11.0218   
    4.57088k     11.0218   
    4.67735k     11.0218   
    4.78630k     11.0218   
    4.89779k     11.0218   
    5.01187k     11.0218   
    5.12861k     11.0218   
    5.24807k     11.0218   
    5.37032k     11.0218   
    5.49541k     11.0218   
    5.62341k     11.0218   
    5.75440k     11.0218   
    5.88844k     11.0218   
    6.02560k     11.0218   
    6.16595k     11.0218   
    6.30957k     11.0218   
    6.45654k     11.0218   
    6.60693k     11.0218   
    6.76083k     11.0218   
    6.91831k     11.0218   
    7.07946k     11.0218   
    7.24436k     11.0218   
    7.41310k     11.0218   
    7.58578k     11.0218   
    7.76247k     11.0218   
    7.94328k     11.0218   
    8.12831k     11.0218   
    8.31764k     11.0218   
    8.51138k     11.0218   
    8.70964k     11.0218   
    8.91251k     11.0218   
    9.12011k     11.0218   
    9.33254k     11.0218   
    9.54993k     11.0218   
    9.77237k     11.0218   
   10.00000k     11.0218   
   10.23293k     11.0218   
   10.47129k     11.0218   
   10.71519k     11.0218   
   10.96478k     11.0218   
   11.22018k     11.0218   
   11.48154k     11.0218   
   11.74898k     11.0218   
   12.02264k     11.0218   
   12.30269k     11.0218   
   12.58925k     11.0218   
   12.88250k     11.0218   
   13.18257k     11.0218   
   13.48963k     11.0218   
   13.80384k     11.0218   
   14.12538k     11.0218   
   14.45440k     11.0218   
   14.79108k     11.0218   
   15.13561k     11.0218   
   15.48817k     11.0218   
   15.84893k     11.0218   
   16.21810k     11.0218   
   16.59587k     11.0218   
   16.98244k     11.0218   
   17.37801k     11.0218   
   17.78279k     11.0218   
   18.19701k     11.0218   
   18.62087k     11.0218   
   19.05461k     11.0218   
   19.49845k     11.0218   
   19.95262k     11.0218   
   20.41738k     11.0218   
   20.89296k     11.0218   
   21.37962k     11.0218   
   21.87762k     11.0218   
   22.38721k     11.0218   
   22.90868k     11.0218   
   23.44229k     11.0218   
   23.98833k     11.0218   
   24.54709k     11.0218   
   25.11886k     11.0218   
   25.70396k     11.0218   
   26.30268k     11.0218   
   26.91535k     11.0218   
   27.54229k     11.0218   
   28.18383k     11.0218   
   28.84032k     11.0218   
   29.51209k     11.0218   
   30.19952k     11.0218   
   30.90295k     11.0218   
   31.62278k     11.0218   
   32.35937k     11.0218   
   33.11311k     11.0218   
   33.88442k     11.0218   
   34.67369k     11.0218   
   35.48134k     11.0218   
   36.30781k     11.0218   
   37.15352k     11.0218   
   38.01894k     11.0218   
   38.90451k     11.0218   
   39.81072k     11.0218   
   40.73803k     11.0218   
   41.68694k     11.0218   
   42.65795k     11.0218   
   43.65158k     11.0218   
   44.66836k     11.0218   
   45.70882k     11.0218   
   46.77351k     11.0218   
   47.86301k     11.0218   
   48.97788k     11.0218   
   50.11872k     11.0218   
   51.28614k     11.0218   
   52.48075k     11.0218   
   53.70318k     11.0218   
   54.95409k     11.0218   
   56.23413k     11.0218   
   57.54399k     11.0218   
   58.88437k     11.0218   
   60.25596k     11.0218   
   61.65950k     11.0218   
   63.09573k     11.0218   
   64.56542k     11.0218   
   66.06934k     11.0218   
   67.60830k     11.0218   
   69.18310k     11.0218   
   70.79458k     11.0218   
   72.44360k     11.0218   
   74.13102k     11.0218   
   75.85776k     11.0218   
   77.62471k     11.0218   
   79.43282k     11.0218   
   81.28305k     11.0218   
   83.17638k     11.0218   
   85.11380k     11.0218   
   87.09636k     11.0218   
   89.12509k     11.0218   
   91.20108k     11.0218   
   93.32543k     11.0218   
   95.49926k     11.0218   
   97.72372k     11.0218   
  100.00000k     11.0218   
  102.32930k     11.0218   
  104.71285k     11.0218   
  107.15193k     11.0217   
  109.64782k     11.0217   
  112.20185k     11.0217   
  114.81536k     11.0217   
  117.48976k     11.0217   
  120.22644k     11.0217   
  123.02688k     11.0217   
  125.89254k     11.0217   
  128.82496k     11.0217   
  131.82567k     11.0217   
  134.89629k     11.0217   
  138.03843k     11.0217   
  141.25375k     11.0217   
  144.54398k     11.0217   
  147.91084k     11.0217   
  151.35612k     11.0217   
  154.88166k     11.0217   
  158.48932k     11.0217   
  162.18101k     11.0217   
  165.95869k     11.0217   
  169.82437k     11.0217   
  173.78008k     11.0217   
  177.82794k     11.0217   
  181.97009k     11.0217   
  186.20871k     11.0217   
  190.54607k     11.0217   
  194.98446k     11.0217   
  199.52623k     11.0217   
  204.17379k     11.0217   
  208.92961k     11.0217   
  213.79621k     11.0217   
  218.77616k     11.0217   
  223.87211k     11.0217   
  229.08677k     11.0217   
  234.42288k     11.0217   
  239.88329k     11.0217   
  245.47089k     11.0217   
  251.18864k     11.0217   
  257.03958k     11.0217   
  263.02680k     11.0217   
  269.15348k     11.0217   
  275.42287k     11.0217   
  281.83829k     11.0217   
  288.40315k     11.0217   
  295.12092k     11.0217   
  301.99517k     11.0217   
  309.02954k     11.0217   
  316.22777k     11.0217   
  323.59366k     11.0217   
  331.13112k     11.0217   
  338.84416k     11.0217   
  346.73685k     11.0217   
  354.81339k     11.0217   
  363.07805k     11.0217   
  371.53523k     11.0217   
  380.18940k     11.0217   
  389.04514k     11.0217   
  398.10717k     11.0217   
  407.38028k     11.0217   
  416.86938k     11.0217   
  426.57952k     11.0217   
  436.51583k     11.0217   
  446.68359k     11.0217   
  457.08819k     11.0217   
  467.73514k     11.0217   
  478.63009k     11.0217   
  489.77882k     11.0217   
  501.18723k     11.0217   
  512.86138k     11.0217   
  524.80746k     11.0217   
  537.03180k     11.0217   
  549.54087k     11.0217   
  562.34133k     11.0217   
  575.43994k     11.0217   
  588.84366k     11.0217   
  602.55959k     11.0216   
  616.59500k     11.0216   
  630.95734k     11.0216   
  645.65423k     11.0216   
  660.69345k     11.0216   
  676.08298k     11.0216   
  691.83097k     11.0216   
  707.94578k     11.0216   
  724.43596k     11.0216   
  741.31024k     11.0216   
  758.57758k     11.0216   
  776.24712k     11.0216   
  794.32823k     11.0216   
  812.83052k     11.0216   
  831.76377k     11.0215   
  851.13804k     11.0215   
  870.96359k     11.0215   
  891.25094k     11.0215   
  912.01084k     11.0215   
  933.25430k     11.0215   
  954.99259k     11.0215   
  977.23722k     11.0215   
    1.00000x     11.0215   
    1.02329x     11.0214   
    1.04713x     11.0214   
    1.07152x     11.0214   
    1.09648x     11.0214   
    1.12202x     11.0214   
    1.14815x     11.0214   
    1.17490x     11.0213   
    1.20226x     11.0213   
    1.23027x     11.0213   
    1.25893x     11.0213   
    1.28825x     11.0213   
    1.31826x     11.0212   
    1.34896x     11.0212   
    1.38038x     11.0212   
    1.41254x     11.0212   
    1.44544x     11.0211   
    1.47911x     11.0211   
    1.51356x     11.0211   
    1.54882x     11.0210   
    1.58489x     11.0210   
    1.62181x     11.0210   
    1.65959x     11.0209   
    1.69824x     11.0209   
    1.73780x     11.0209   
    1.77828x     11.0208   
    1.81970x     11.0208   
    1.86209x     11.0207   
    1.90546x     11.0207   
    1.94984x     11.0206   
    1.99526x     11.0206   
    2.04174x     11.0205   
    2.08930x     11.0205   
    2.13796x     11.0204   
    2.18776x     11.0203   
    2.23872x     11.0203   
    2.29087x     11.0202   
    2.34423x     11.0201   
    2.39883x     11.0201   
    2.45471x     11.0200   
    2.51189x     11.0199   
    2.57040x     11.0198   
    2.63027x     11.0197   
    2.69153x     11.0196   
    2.75423x     11.0195   
    2.81838x     11.0194   
    2.88403x     11.0193   
    2.95121x     11.0192   
    3.01995x     11.0191   
    3.09030x     11.0189   
    3.16228x     11.0188   
    3.23594x     11.0187   
    3.31131x     11.0185   
    3.38844x     11.0184   
    3.46737x     11.0182   
    3.54813x     11.0180   
    3.63078x     11.0179   
    3.71535x     11.0177   
    3.80189x     11.0175   
    3.89045x     11.0173   
    3.98107x     11.0171   
    4.07380x     11.0169   
    4.16869x     11.0166   
    4.26580x     11.0164   
    4.36516x     11.0161   
    4.46684x     11.0159   
    4.57088x     11.0156   
    4.67735x     11.0153   
    4.78630x     11.0150   
    4.89779x     11.0147   
    5.01187x     11.0143   
    5.12861x     11.0140   
    5.24807x     11.0136   
    5.37032x     11.0132   
    5.49541x     11.0128   
    5.62341x     11.0124   
    5.75440x     11.0120   
    5.88844x     11.0115   
    6.02560x     11.0110   
    6.16595x     11.0105   
    6.30957x     11.0100   
    6.45654x     11.0095   
    6.60693x     11.0089   
    6.76083x     11.0083   
    6.91831x     11.0076   
    7.07946x     11.0070   
    7.24436x     11.0063   
    7.41310x     11.0056   
    7.58578x     11.0048   
    7.76247x     11.0040   
    7.94328x     11.0032   
    8.12831x     11.0023   
    8.31764x     11.0014   
    8.51138x     11.0004   
    8.70964x     10.9994   
    8.91251x     10.9984   
    9.12011x     10.9973   
    9.33254x     10.9961   
    9.54993x     10.9949   
    9.77237x     10.9936   
   10.00000x     10.9923   
   10.23293x     10.9909   
   10.47129x     10.9895   
   10.71519x     10.9880   
   10.96478x     10.9864   
   11.22018x     10.9847   
   11.48154x     10.9830   
   11.74898x     10.9812   
   12.02264x     10.9793   
   12.30269x     10.9773   
   12.58925x     10.9752   
   12.88250x     10.9730   
   13.18257x     10.9707   
   13.48963x     10.9683   
   13.80384x     10.9658   
   14.12538x     10.9632   
   14.45440x     10.9605   
   14.79108x     10.9576   
   15.13561x     10.9546   
   15.48817x     10.9515   
   15.84893x     10.9482   
   16.21810x     10.9448   
   16.59587x     10.9412   
   16.98244x     10.9374   
   17.37801x     10.9335   
   17.78279x     10.9293   
   18.19701x     10.9250   
   18.62087x     10.9205   
   19.05461x     10.9158   
   19.49845x     10.9109   
   19.95262x     10.9057   
   20.41738x     10.9003   
   20.89296x     10.8947   
   21.37962x     10.8888   
   21.87762x     10.8826   
   22.38721x     10.8762   
   22.90868x     10.8694   
   23.44229x     10.8624   
   23.98833x     10.8550   
   24.54709x     10.8473   
   25.11886x     10.8393   
   25.70396x     10.8308   
   26.30268x     10.8220   
   26.91535x     10.8128   
   27.54229x     10.8032   
   28.18383x     10.7932   
   28.84032x     10.7827   
   29.51209x     10.7718   
   30.19952x     10.7603   
   30.90295x     10.7484   
   31.62278x     10.7359   
   32.35937x     10.7229   
   33.11311x     10.7093   
   33.88442x     10.6951   
   34.67369x     10.6803   
   35.48134x     10.6648   
   36.30781x     10.6487   
   37.15352x     10.6319   
   38.01894x     10.6143   
   38.90451x     10.5960   
   39.81072x     10.5769   
   40.73803x     10.5570   
   41.68694x     10.5363   
   42.65795x     10.5147   
   43.65158x     10.4921   
   44.66836x     10.4687   
   45.70882x     10.4442   
   46.77351x     10.4188   
   47.86301x     10.3923   
   48.97788x     10.3647   
   50.11872x     10.3361   
   51.28614x     10.3062   
   52.48075x     10.2752   
   53.70318x     10.2430   
   54.95409x     10.2094   
   56.23413x     10.1746   
   57.54399x     10.1384   
   58.88437x     10.1008   
   60.25596x     10.0618   
   61.65950x     10.0213   
   63.09573x      9.9793   
   64.56542x      9.9358   
   66.06934x      9.8906   
   67.60830x      9.8438   
   69.18310x      9.7953   
   70.79458x      9.7451   
   72.44360x      9.6932   
   74.13102x      9.6394   
   75.85776x      9.5838   
   77.62471x      9.5263   
   79.43282x      9.4669   
   81.28305x      9.4055   
   83.17638x      9.3421   
   85.11380x      9.2767   
   87.09636x      9.2092   
   89.12509x      9.1396   
   91.20108x      9.0679   
   93.32543x      8.9940   
   95.49926x      8.9180   
   97.72372x      8.8397   
  100.00000x      8.7591   
  102.32930x      8.6764   
  104.71285x      8.5913   
  107.15193x      8.5039   
  109.64782x      8.4142   
  112.20185x      8.3221   
  114.81536x      8.2277   
  117.48976x      8.1310   
  120.22644x      8.0319   
  123.02688x      7.9303   
  125.89254x      7.8265   
  128.82496x      7.7202   
  131.82567x      7.6116   
  134.89629x      7.5006   
  138.03843x      7.3872   
  141.25375x      7.2714   
  144.54398x      7.1533   
  147.91084x      7.0329   
  151.35612x      6.9102   
  154.88166x      6.7851   
  158.48932x      6.6577   
  162.18101x      6.5281   
  165.95869x      6.3962   
  169.82437x      6.2621   
  173.78008x      6.1257   
  177.82794x      5.9872   
  181.97009x      5.8465   
  186.20871x      5.7037   
  190.54607x      5.5588   
  194.98446x      5.4119   
  199.52623x      5.2628   
  204.17379x      5.1118   
  208.92961x      4.9588   
  213.79621x      4.8038   
  218.77616x      4.6469   
  223.87211x      4.4881   
  229.08677x      4.3274   
  234.42288x      4.1649   
  239.88329x      4.0006   
  245.47089x      3.8345   
  251.18864x      3.6667   
  257.03958x      3.4972   
  263.02680x      3.3259   
  269.15348x      3.1530   
  275.42287x      2.9785   
  281.83829x      2.8023   
  288.40315x      2.6246   
  295.12092x      2.4452   
  301.99517x      2.2644   
  309.02954x      2.0820   
  316.22777x      1.8981   
  323.59366x      1.7127   
  331.13112x      1.5258   
  338.84416x      1.3374   
  346.73685x      1.1476   
  354.81339x    956.3989m  
  363.07805x    763.7375m  
  371.53523x    569.6566m  
  380.18940x    374.1618m  
  389.04514x    177.2600m  
  398.10717x    -21.0470m  
  407.38028x   -220.7569m  
  416.86938x   -421.8680m  
  426.57952x   -624.3827m  
  436.51583x   -828.3030m  
  446.68359x     -1.0336   
  457.08819x     -1.2404   
  467.73514x     -1.4486   
  478.63009x     -1.6582   
  489.77882x     -1.8692   
  501.18723x     -2.0817   
  512.86138x     -2.2957   
  524.80746x     -2.5111   
  537.03180x     -2.7281   
  549.54087x     -2.9466   
  562.34133x     -3.1666   
  575.43994x     -3.3881   
  588.84366x     -3.6113   
  602.55959x     -3.8360   
  616.59500x     -4.0624   
  630.95734x     -4.2904   
  645.65423x     -4.5201   
  660.69345x     -4.7515   
  676.08298x     -4.9847   
  691.83097x     -5.2195   
  707.94578x     -5.4562   
  724.43596x     -5.6947   
  741.31024x     -5.9350   
  758.57758x     -6.1772   
  776.24712x     -6.4213   
  794.32823x     -6.6674   
  812.83052x     -6.9153   
  831.76377x     -7.1653   
  851.13804x     -7.4173   
  870.96359x     -7.6714   
  891.25094x     -7.9275   
  912.01084x     -8.1857   
  933.25430x     -8.4460   
  954.99259x     -8.7085   
  977.23722x     -8.9732   
    1.00000g     -9.2401   
y

a


      freq       vdb(drain)
 (a       )     -10.0000        0.           10.0000       20.0000      30.0000 
                      +             +             +             +             + 
    1.0000k   11.022 -+------+------+------+------+a-----+------+------+------+-
    1.0233k   11.022  +      +      +      +      +a     +      +      +      + 
    1.0471k   11.022  +      +      +      +      +a     +      +      +      + 
    1.0715k   11.022  +      +      +      +      +a     +      +      +      + 
    1.0965k   11.022  +      +      +      +      +a     +      +      +      + 
    1.1220k   11.022  +      +      +      +      +a     +      +      +      + 
    1.1482k   11.022  +      +      +      +      +a     +      +      +      + 
    1.1749k   11.022  +      +      +      +      +a     +      +      +      + 
    1.2023k   11.022  +      +      +      +      +a     +      +      +      + 
    1.2303k   11.022  +      +      +      +      +a     +      +      +      + 
    1.2589k   11.022 -+------+------+------+------+a-----+------+------+------+-
    1.2882k   11.022  +      +      +      +      +a     +      +      +      + 
    1.3183k   11.022  +      +      +      +      +a     +      +      +      + 
    1.3490k   11.022  +      +      +      +      +a     +      +      +      + 
    1.3804k   11.022  +      +      +      +      +a     +      +      +      + 
    1.4125k   11.022  +      +      +      +      +a     +      +      +      + 
    1.4454k   11.022  +      +      +      +      +a     +      +      +      + 
    1.4791k   11.022  +      +      +      +      +a     +      +      +      + 
    1.5136k   11.022  +      +      +      +      +a     +      +      +      + 
    1.5488k   11.022  +      +      +      +      +a     +      +      +      + 
    1.5849k   11.022 -+------+------+------+------+a-----+------+------+------+-
    1.6218k   11.022  +      +      +      +      +a     +      +      +      + 
    1.6596k   11.022  +      +      +      +      +a     +      +      +      + 
    1.6982k   11.022  +      +      +      +      +a     +      +      +      + 
    1.7378k   11.022  +      +      +      +      +a     +      +      +      + 
    1.7783k   11.022  +      +      +      +      +a     +      +      +      + 
    1.8197k   11.022  +      +      +      +      +a     +      +      +      + 
    1.8621k   11.022  +      +      +      +      +a     +      +      +      + 
    1.9055k   11.022  +      +      +      +      +a     +      +      +      + 
    1.9498k   11.022  +      +      +      +      +a     +      +      +      + 
    1.9953k   11.022 -+------+------+------+------+a-----+------+------+------+-
    2.0417k   11.022  +      +      +      +      +a     +      +      +      + 
    2.0893k   11.022  +      +      +      +      +a     +      +      +      + 
    2.1380k   11.022  +      +      +      +      +a     +      +      +      + 
    2.1878k   11.022  +      +      +      +      +a     +      +      +      + 
    2.2387k   11.022  +      +      +      +      +a     +      +      +      + 
    2.2909k   11.022  +      +      +      +      +a     +      +      +      + 
    2.3442k   11.022  +      +      +      +      +a     +      +      +      + 
    2.3988k   11.022  +      +      +      +      +a     +      +      +      + 
    2.4547k   11.022  +      +      +      +      +a     +      +      +      + 
    2.5119k   11.022 -+------+------+------+------+a-----+------+------+------+-
    2.5704k   11.022  +      +      +      +      +a     +      +      +      + 
    2.6303k   11.022  +      +      +      +      +a     +      +      +      + 
    2.6915k   11.022  +      +      +      +      +a     +      +      +      + 
    2.7542k   11.022  +      +      +      +      +a     +      +      +      + 
    2.8184k   11.022  +      +      +      +      +a     +      +      +      + 
    2.8840k   11.022  +      +      +      +      +a     +      +      +      + 
    2.9512k   11.022  +      +      +      +      +a     +      +      +      + 
    3.0200k   11.022  +      +      +      +      +a     +      +      +      + 
    3.0903k   11.022  +      +      +      +      +a     +      +      +      + 
    3.1623k   11.022 -+------+------+------+------+a-----+------+------+------+-
    3.2359k   11.022  +      +      +      +      +a     +      +      +      + 
    3.3113k   11.022  +      +      +      +      +a     +      +      +      + 
    3.3884k   11.022  +      +      +      +      +a     +      +      +      + 
    3.4674k   11.022  +      +      +      +      +a     +      +      +      + 
    3.5481k   11.022  +      +      +      +      +a     +      +      +      + 
    3.6308k   11.022  +      +      +      +      +a     +      +      +      + 
    3.7154k   11.022  +      +      +      +      +a     +      +      +      + 
    3.8019k   11.022  +      +      +      +      +a     +      +      +      + 
    3.8905k   11.022  +      +      +      +      +a     +      +      +      + 
    3.9811k   11.022 -+------+------+------+------+a-----+------+------+------+-
    4.0738k   11.022  +      +      +      +      +a     +      +      +      + 
    4.1687k   11.022  +      +      +      +      +a     +      +      +      + 
    4.2658k   11.022  +      +      +      +      +a     +      +      +      + 
    4.3652k   11.022  +      +      +      +      +a     +      +      +      + 
    4.4668k   11.022  +      +      +      +      +a     +      +      +      + 
    4.5709k   11.022  +      +      +      +      +a     +      +      +      + 
    4.6774k   11.022  +      +      +      +      +a     +      +      +      + 
    4.7863k   11.022  +      +      +      +      +a     +      +      +      + 
    4.8978k   11.022  +      +      +      +      +a     +      +      +      + 
    5.0119k   11.022 -+------+------+------+------+a-----+------+------+------+-
    5.1286k   11.022  +      +      +      +      +a     +      +      +      + 
    5.2481k   11.022  +      +      +      +      +a     +      +      +      + 
    5.3703k   11.022  +      +      +      +      +a     +      +      +      + 
    5.4954k   11.022  +      +      +      +      +a     +      +      +      + 
    5.6234k   11.022  +      +      +      +      +a     +      +      +      + 
    5.7544k   11.022  +      +      +      +      +a     +      +      +      + 
    5.8884k   11.022  +      +      +      +      +a     +      +      +      + 
    6.0256k   11.022  +      +      +      +      +a     +      +      +      + 
    6.1660k   11.022  +      +      +      +      +a     +      +      +      + 
    6.3096k   11.022 -+------+------+------+------+a-----+------+------+------+-
    6.4565k   11.022  +      +      +      +      +a     +      +      +      + 
    6.6069k   11.022  +      +      +      +      +a     +      +      +      + 
    6.7608k   11.022  +      +      +      +      +a     +      +      +      + 
    6.9183k   11.022  +      +      +      +      +a     +      +      +      + 
    7.0795k   11.022  +      +      +      +      +a     +      +      +      + 
    7.2444k   11.022  +      +      +      +      +a     +      +      +      + 
    7.4131k   11.022  +      +      +      +      +a     +      +      +      + 
    7.5858k   11.022  +      +      +      +      +a     +      +      +      + 
    7.7625k   11.022  +      +      +      +      +a     +      +      +      + 
    7.9433k   11.022 -+------+------+------+------+a-----+------+------+------+-
    8.1283k   11.022  +      +      +      +      +a     +      +      +      + 
    8.3176k   11.022  +      +      +      +      +a     +      +      +      + 
    8.5114k   11.022  +      +      +      +      +a     +      +      +      + 
    8.7096k   11.022  +      +      +      +      +a     +      +      +      + 
    8.9125k   11.022  +      +      +      +      +a     +      +      +      + 
    9.1201k   11.022  +      +      +      +      +a     +      +      +      + 
    9.3325k   11.022  +      +      +      +      +a     +      +      +      + 
    9.5499k   11.022  +      +      +      +      +a     +      +      +      + 
    9.7724k   11.022  +      +      +      +      +a     +      +      +      + 
   10.0000k   11.022 -+------+------+------+------+a-----+------+------+------+-
   10.2329k   11.022  +      +      +      +      +a     +      +      +      + 
   10.4713k   11.022  +      +      +      +      +a     +      +      +      + 
   10.7152k   11.022  +      +      +      +      +a     +      +      +      + 
   10.9648k   11.022  +      +      +      +      +a     +      +      +      + 
   11.2202k   11.022  +      +      +      +      +a     +      +      +      + 
   11.4815k   11.022  +      +      +      +      +a     +      +      +      + 
   11.7490k   11.022  +      +      +      +      +a     +      +      +      + 
   12.0226k   11.022  +      +      +      +      +a     +      +      +      + 
   12.3027k   11.022  +      +      +      +      +a     +      +      +      + 
   12.5893k   11.022 -+------+------+------+------+a-----+------+------+------+-
   12.8825k   11.022  +      +      +      +      +a     +      +      +      + 
   13.1826k   11.022  +      +      +      +      +a     +      +      +      + 
   13.4896k   11.022  +      +      +      +      +a     +      +      +      + 
   13.8038k   11.022  +      +      +      +      +a     +      +      +      + 
   14.1254k   11.022  +      +      +      +      +a     +      +      +      + 
   14.4544k   11.022  +      +      +      +      +a     +      +      +      + 
   14.7911k   11.022  +      +      +      +      +a     +      +      +      + 
   15.1356k   11.022  +      +      +      +      +a     +      +      +      + 
   15.4882k   11.022  +      +      +      +      +a     +      +      +      + 
   15.8489k   11.022 -+------+------+------+------+a-----+------+------+------+-
   16.2181k   11.022  +      +      +      +      +a     +      +      +      + 
   16.5959k   11.022  +      +      +      +      +a     +      +      +      + 
   16.9824k   11.022  +      +      +      +      +a     +      +      +      + 
   17.3780k   11.022  +      +      +      +      +a     +      +      +      + 
   17.7828k   11.022  +      +      +      +      +a     +      +      +      + 
   18.1970k   11.022  +      +      +      +      +a     +      +      +      + 
   18.6209k   11.022  +      +      +      +      +a     +      +      +      + 
   19.0546k   11.022  +      +      +      +      +a     +      +      +      + 
   19.4984k   11.022  +      +      +      +      +a     +      +      +      + 
   19.9526k   11.022 -+------+------+------+------+a-----+------+------+------+-
   20.4174k   11.022  +      +      +      +      +a     +      +      +      + 
   20.8930k   11.022  +      +      +      +      +a     +      +      +      + 
   21.3796k   11.022  +      +      +      +      +a     +      +      +      + 
   21.8776k   11.022  +      +      +      +      +a     +      +      +      + 
   22.3872k   11.022  +      +      +      +      +a     +      +      +      + 
   22.9087k   11.022  +      +      +      +      +a     +      +      +      + 
   23.4423k   11.022  +      +      +      +      +a     +      +      +      + 
   23.9883k   11.022  +      +      +      +      +a     +      +      +      + 
   24.5471k   11.022  +      +      +      +      +a     +      +      +      + 
   25.1189k   11.022 -+------+------+------+------+a-----+------+------+------+-
   25.7040k   11.022  +      +      +      +      +a     +      +      +      + 
   26.3027k   11.022  +      +      +      +      +a     +      +      +      + 
   26.9153k   11.022  +      +      +      +      +a     +      +      +      + 
   27.5423k   11.022  +      +      +      +      +a     +      +      +      + 
   28.1838k   11.022  +      +      +      +      +a     +      +      +      + 
   28.8403k   11.022  +      +      +      +      +a     +      +      +      + 
   29.5121k   11.022  +      +      +      +      +a     +      +      +      + 
   30.1995k   11.022  +      +      +      +      +a     +      +      +      + 
   30.9030k   11.022  +      +      +      +      +a     +      +      +      + 
   31.6228k   11.022 -+------+------+------+------+a-----+------+------+------+-
   32.3594k   11.022  +      +      +      +      +a     +      +      +      + 
   33.1131k   11.022  +      +      +      +      +a     +      +      +      + 
   33.8844k   11.022  +      +      +      +      +a     +      +      +      + 
   34.6737k   11.022  +      +      +      +      +a     +      +      +      + 
   35.4813k   11.022  +      +      +      +      +a     +      +      +      + 
   36.3078k   11.022  +      +      +      +      +a     +      +      +      + 
   37.1535k   11.022  +      +      +      +      +a     +      +      +      + 
   38.0189k   11.022  +      +      +      +      +a     +      +      +      + 
   38.9045k   11.022  +      +      +      +      +a     +      +      +      + 
   39.8107k   11.022 -+------+------+------+------+a-----+------+------+------+-
   40.7380k   11.022  +      +      +      +      +a     +      +      +      + 
   41.6869k   11.022  +      +      +      +      +a     +      +      +      + 
   42.6580k   11.022  +      +      +      +      +a     +      +      +      + 
   43.6516k   11.022  +      +      +      +      +a     +      +      +      + 
   44.6684k   11.022  +      +      +      +      +a     +      +      +      + 
   45.7088k   11.022  +      +      +      +      +a     +      +      +      + 
   46.7735k   11.022  +      +      +      +      +a     +      +      +      + 
   47.8630k   11.022  +      +      +      +      +a     +      +      +      + 
   48.9779k   11.022  +      +      +      +      +a     +      +      +      + 
   50.1187k   11.022 -+------+------+------+------+a-----+------+------+------+-
   51.2861k   11.022  +      +      +      +      +a     +      +      +      + 
   52.4807k   11.022  +      +      +      +      +a     +      +      +      + 
   53.7032k   11.022  +      +      +      +      +a     +      +      +      + 
   54.9541k   11.022  +      +      +      +      +a     +      +      +      + 
   56.2341k   11.022  +      +      +      +      +a     +      +      +      + 
   57.5440k   11.022  +      +      +      +      +a     +      +      +      + 
   58.8844k   11.022  +      +      +      +      +a     +      +      +      + 
   60.2560k   11.022  +      +      +      +      +a     +      +      +      + 
   61.6595k   11.022  +      +      +      +      +a     +      +      +      + 
   63.0957k   11.022 -+------+------+------+------+a-----+------+------+------+-
   64.5654k   11.022  +      +      +      +      +a     +      +      +      + 
   66.0693k   11.022  +      +      +      +      +a     +      +      +      + 
   67.6083k   11.022  +      +      +      +      +a     +      +      +      + 
   69.1831k   11.022  +      +      +      +      +a     +      +      +      + 
   70.7946k   11.022  +      +      +      +      +a     +      +      +      + 
   72.4436k   11.022  +      +      +      +      +a     +      +      +      + 
   74.1310k   11.022  +      +      +      +      +a     +      +      +      + 
   75.8578k   11.022  +      +      +      +      +a     +      +      +      + 
   77.6247k   11.022  +      +      +      +      +a     +      +      +      + 
   79.4328k   11.022 -+------+------+------+------+a-----+------+------+------+-
   81.2831k   11.022  +      +      +      +      +a     +      +      +      + 
   83.1764k   11.022  +      +      +      +      +a     +      +      +      + 
   85.1138k   11.022  +      +      +      +      +a     +      +      +      + 
   87.0964k   11.022  +      +      +      +      +a     +      +      +      + 
   89.1251k   11.022  +      +      +      +      +a     +      +      +      + 
   91.2011k   11.022  +      +      +      +      +a     +      +      +      + 
   93.3254k   11.022  +      +      +      +      +a     +      +      +      + 
   95.4993k   11.022  +      +      +      +      +a     +      +      +      + 
   97.7237k   11.022  +      +      +      +      +a     +      +      +      + 
  100.0000k   11.022 -+------+------+------+------+a-----+------+------+------+-
  102.3293k   11.022  +      +      +      +      +a     +      +      +      + 
  104.7129k   11.022  +      +      +      +      +a     +      +      +      + 
  107.1519k   11.022  +      +      +      +      +a     +      +      +      + 
  109.6478k   11.022  +      +      +      +      +a     +      +      +      + 
  112.2018k   11.022  +      +      +      +      +a     +      +      +      + 
  114.8154k   11.022  +      +      +      +      +a     +      +      +      + 
  117.4898k   11.022  +      +      +      +      +a     +      +      +      + 
  120.2264k   11.022  +      +      +      +      +a     +      +      +      + 
  123.0269k   11.022  +      +      +      +      +a     +      +      +      + 
  125.8925k   11.022 -+------+------+------+------+a-----+------+------+------+-
  128.8250k   11.022  +      +      +      +      +a     +      +      +      + 
  131.8257k   11.022  +      +      +      +      +a     +      +      +      + 
  134.8963k   11.022  +      +      +      +      +a     +      +      +      + 
  138.0384k   11.022  +      +      +      +      +a     +      +      +      + 
  141.2538k   11.022  +      +      +      +      +a     +      +      +      + 
  144.5440k   11.022  +      +      +      +      +a     +      +      +      + 
  147.9108k   11.022  +      +      +      +      +a     +      +      +      + 
  151.3561k   11.022  +      +      +      +      +a     +      +      +      + 
  154.8817k   11.022  +      +      +      +      +a     +      +      +      + 
  158.4893k   11.022 -+------+------+------+------+a-----+------+------+------+-
  162.1810k   11.022  +      +      +      +      +a     +      +      +      + 
  165.9587k   11.022  +      +      +      +      +a     +      +      +      + 
  169.8244k   11.022  +      +      +      +      +a     +      +      +      + 
  173.7801k   11.022  +      +      +      +      +a     +      +      +      + 
  177.8279k   11.022  +      +      +      +      +a     +      +      +      + 
  181.9701k   11.022  +      +      +      +      +a     +      +      +      + 
  186.2087k   11.022  +      +      +      +      +a     +      +      +      + 
  190.5461k   11.022  +      +      +      +      +a     +      +      +      + 
  194.9845k   11.022  +      +      +      +      +a     +      +      +      + 
  199.5262k   11.022 -+------+------+------+------+a-----+------+------+------+-
  204.1738k   11.022  +      +      +      +      +a     +      +      +      + 
  208.9296k   11.022  +      +      +      +      +a     +      +      +      + 
  213.7962k   11.022  +      +      +      +      +a     +      +      +      + 
  218.7762k   11.022  +      +      +      +      +a     +      +      +      + 
  223.8721k   11.022  +      +      +      +      +a     +      +      +      + 
  229.0868k   11.022  +      +      +      +      +a     +      +      +      + 
  234.4229k   11.022  +      +      +      +      +a     +      +      +      + 
  239.8833k   11.022  +      +      +      +      +a     +      +      +      + 
  245.4709k   11.022  +      +      +      +      +a     +      +      +      + 
  251.1886k   11.022 -+------+------+------+------+a-----+------+------+------+-
  257.0396k   11.022  +      +      +      +      +a     +      +      +      + 
  263.0268k   11.022  +      +      +      +      +a     +      +      +      + 
  269.1535k   11.022  +      +      +      +      +a     +      +      +      + 
  275.4229k   11.022  +      +      +      +      +a     +      +      +      + 
  281.8383k   11.022  +      +      +      +      +a     +      +      +      + 
  288.4032k   11.022  +      +      +      +      +a     +      +      +      + 
  295.1209k   11.022  +      +      +      +      +a     +      +      +      + 
  301.9952k   11.022  +      +      +      +      +a     +      +      +      + 
  309.0295k   11.022  +      +      +      +      +a     +      +      +      + 
  316.2278k   11.022 -+------+------+------+------+a-----+------+------+------+-
  323.5937k   11.022  +      +      +      +      +a     +      +      +      + 
  331.1311k   11.022  +      +      +      +      +a     +      +      +      + 
  338.8442k   11.022  +      +      +      +      +a     +      +      +      + 
  346.7369k   11.022  +      +      +      +      +a     +      +      +      + 
  354.8134k   11.022  +      +      +      +      +a     +      +      +      + 
  363.0781k   11.022  +      +      +      +      +a     +      +      +      + 
  371.5352k   11.022  +      +      +      +      +a     +      +      +      + 
  380.1894k   11.022  +      +      +      +      +a     +      +      +      + 
  389.0451k   11.022  +      +      +      +      +a     +      +      +      + 
  398.1072k   11.022 -+------+------+------+------+a-----+------+------+------+-
  407.3803k   11.022  +      +      +      +      +a     +      +      +      + 
  416.8694k   11.022  +      +      +      +      +a     +      +      +      + 
  426.5795k   11.022  +      +      +      +      +a     +      +      +      + 
  436.5158k   11.022  +      +      +      +      +a     +      +      +      + 
  446.6836k   11.022  +      +      +      +      +a     +      +      +      + 
  457.0882k   11.022  +      +      +      +      +a     +      +      +      + 
  467.7351k   11.022  +      +      +      +      +a     +      +      +      + 
  478.6301k   11.022  +      +      +      +      +a     +      +      +      + 
  489.7788k   11.022  +      +      +      +      +a     +      +      +      + 
  501.1872k   11.022 -+------+------+------+------+a-----+------+------+------+-
  512.8614k   11.022  +      +      +      +      +a     +      +      +      + 
  524.8075k   11.022  +      +      +      +      +a     +      +      +      + 
  537.0318k   11.022  +      +      +      +      +a     +      +      +      + 
  549.5409k   11.022  +      +      +      +      +a     +      +      +      + 
  562.3413k   11.022  +      +      +      +      +a     +      +      +      + 
  575.4399k   11.022  +      +      +      +      +a     +      +      +      + 
  588.8437k   11.022  +      +      +      +      +a     +      +      +      + 
  602.5596k   11.022  +      +      +      +      +a     +      +      +      + 
  616.5950k   11.022  +      +      +      +      +a     +      +      +      + 
  630.9573k   11.022 -+------+------+------+------+a-----+------+------+------+-
  645.6542k   11.022  +      +      +      +      +a     +      +      +      + 
  660.6934k   11.022  +      +      +      +      +a     +      +      +      + 
  676.0830k   11.022  +      +      +      +      +a     +      +      +      + 
  691.8310k   11.022  +      +      +      +      +a     +      +      +      + 
  707.9458k   11.022  +      +      +      +      +a     +      +      +      + 
  724.4360k   11.022  +      +      +      +      +a     +      +      +      + 
  741.3102k   11.022  +      +      +      +      +a     +      +      +      + 
  758.5776k   11.022  +      +      +      +      +a     +      +      +      + 
  776.2471k   11.022  +      +      +      +      +a     +      +      +      + 
  794.3282k   11.022 -+------+------+------+------+a-----+------+------+------+-
  812.8305k   11.022  +      +      +      +      +a     +      +      +      + 
  831.7638k   11.022  +      +      +      +      +a     +      +      +      + 
  851.1380k   11.022  +      +      +      +      +a     +      +      +      + 
  870.9636k   11.022  +      +      +      +      +a     +      +      +      + 
  891.2509k   11.022  +      +      +      +      +a     +      +      +      + 
  912.0108k   11.022  +      +      +      +      +a     +      +      +      + 
  933.2543k   11.021  +      +      +      +      +a     +      +      +      + 
  954.9926k   11.021  +      +      +      +      +a     +      +      +      + 
  977.2372k   11.021  +      +      +      +      +a     +      +      +      + 
    1.0000x   11.021 -+------+------+------+------+a-----+------+------+------+-
    1.0233x   11.021  +      +      +      +      +a     +      +      +      + 
    1.0471x   11.021  +      +      +      +      +a     +      +      +      + 
    1.0715x   11.021  +      +      +      +      +a     +      +      +      + 
    1.0965x   11.021  +      +      +      +      +a     +      +      +      + 
    1.1220x   11.021  +      +      +      +      +a     +      +      +      + 
    1.1482x   11.021  +      +      +      +      +a     +      +      +      + 
    1.1749x   11.021  +      +      +      +      +a     +      +      +      + 
    1.2023x   11.021  +      +      +      +      +a     +      +      +      + 
    1.2303x   11.021  +      +      +      +      +a     +      +      +      + 
    1.2589x   11.021 -+------+------+------+------+a-----+------+------+------+-
    1.2882x   11.021  +      +      +      +      +a     +      +      +      + 
    1.3183x   11.021  +      +      +      +      +a     +      +      +      + 
    1.3490x   11.021  +      +      +      +      +a     +      +      +      + 
    1.3804x   11.021  +      +      +      +      +a     +      +      +      + 
    1.4125x   11.021  +      +      +      +      +a     +      +      +      + 
    1.4454x   11.021  +      +      +      +      +a     +      +      +      + 
    1.4791x   11.021  +      +      +      +      +a     +      +      +      + 
    1.5136x   11.021  +      +      +      +      +a     +      +      +      + 
    1.5488x   11.021  +      +      +      +      +a     +      +      +      + 
    1.5849x   11.021 -+------+------+------+------+a-----+------+------+------+-
    1.6218x   11.021  +      +      +      +      +a     +      +      +      + 
    1.6596x   11.021  +      +      +      +      +a     +      +      +      + 
    1.6982x   11.021  +      +      +      +      +a     +      +      +      + 
    1.7378x   11.021  +      +      +      +      +a     +      +      +      + 
    1.7783x   11.021  +      +      +      +      +a     +      +      +      + 
    1.8197x   11.021  +      +      +      +      +a     +      +      +      + 
    1.8621x   11.021  +      +      +      +      +a     +      +      +      + 
    1.9055x   11.021  +      +      +      +      +a     +      +      +      + 
    1.9498x   11.021  +      +      +      +      +a     +      +      +      + 
    1.9953x   11.021 -+------+------+------+------+a-----+------+------+------+-
    2.0417x   11.021  +      +      +      +      +a     +      +      +      + 
    2.0893x   11.020  +      +      +      +      +a     +      +      +      + 
    2.1380x   11.020  +      +      +      +      +a     +      +      +      + 
    2.1878x   11.020  +      +      +      +      +a     +      +      +      + 
    2.2387x   11.020  +      +      +      +      +a     +      +      +      + 
    2.2909x   11.020  +      +      +      +      +a     +      +      +      + 
    2.3442x   11.020  +      +      +      +      +a     +      +      +      + 
    2.3988x   11.020  +      +      +      +      +a     +      +      +      + 
    2.4547x   11.020  +      +      +      +      +a     +      +      +      + 
    2.5119x   11.020 -+------+------+------+------+a-----+------+------+------+-
    2.5704x   11.020  +      +      +      +      +a     +      +      +      + 
    2.6303x   11.020  +      +      +      +      +a     +      +      +      + 
    2.6915x   11.020  +      +      +      +      +a     +      +      +      + 
    2.7542x   11.020  +      +      +      +      +a     +      +      +      + 
    2.8184x   11.019  +      +      +      +      +a     +      +      +      + 
    2.8840x   11.019  +      +      +      +      +a     +      +      +      + 
    2.9512x   11.019  +      +      +      +      +a     +      +      +      + 
    3.0200x   11.019  +      +      +      +      +a     +      +      +      + 
    3.0903x   11.019  +      +      +      +      +a     +      +      +      + 
    3.1623x   11.019 -+------+------+------+------+a-----+------+------+------+-
    3.2359x   11.019  +      +      +      +      +a     +      +      +      + 
    3.3113x   11.019  +      +      +      +      +a     +      +      +      + 
    3.3884x   11.018  +      +      +      +      +a     +      +      +      + 
    3.4674x   11.018  +      +      +      +      +a     +      +      +      + 
    3.5481x   11.018  +      +      +      +      +a     +      +      +      + 
    3.6308x   11.018  +      +      +      +      +a     +      +      +      + 
    3.7154x   11.018  +      +      +      +      +a     +      +      +      + 
    3.8019x   11.017  +      +      +      +      +a     +      +      +      + 
    3.8905x   11.017  +      +      +      +      +a     +      +      +      + 
    3.9811x   11.017 -+------+------+------+------+a-----+------+------+------+-
    4.0738x   11.017  +      +      +      +      +a     +      +      +      + 
    4.1687x   11.017  +      +      +      +      +a     +      +      +      + 
    4.2658x   11.016  +      +      +      +      +a     +      +      +      + 
    4.3652x   11.016  +      +      +      +      +a     +      +      +      + 
    4.4668x   11.016  +      +      +      +      +a     +      +      +      + 
    4.5709x   11.016  +      +      +      +      +a     +      +      +      + 
    4.6774x   11.015  +      +      +      +      +a     +      +      +      + 
    4.7863x   11.015  +      +      +      +      +a     +      +      +      + 
    4.8978x   11.015  +      +      +      +      +a     +      +      +      + 
    5.0119x   11.014 -+------+------+------+------+a-----+------+------+------+-
    5.1286x   11.014  +      +      +      +      +a     +      +      +      + 
    5.2481x   11.014  +      +      +      +      +a     +      +      +      + 
    5.3703x   11.013  +      +      +      +      +a     +      +      +      + 
    5.4954x   11.013  +      +      +      +      +a     +      +      +      + 
    5.6234x   11.012  +      +      +      +      +a     +      +      +      + 
    5.7544x   11.012  +      +      +      +      +a     +      +      +      + 
    5.8884x   11.012  +      +      +      +      +a     +      +      +      + 
    6.0256x   11.011  +      +      +      +      +a     +      +      +      + 
    6.1660x   11.011  +      +      +      +      +a     +      +      +      + 
    6.3096x   11.010 -+------+------+------+------+a-----+------+------+------+-
    6.4565x   11.009  +      +      +      +      +a     +      +      +      + 
    6.6069x   11.009  +      +      +      +      +a     +      +      +      + 
    6.7608x   11.008  +      +      +      +      +a     +      +      +      + 
    6.9183x   11.008  +      +      +      +      +a     +      +      +      + 
    7.0795x   11.007  +      +      +      +      +a     +      +      +      + 
    7.2444x   11.006  +      +      +      +      +a     +      +      +      + 
    7.4131x   11.006  +      +      +      +      +a     +      +      +      + 
    7.5858x   11.005  +      +      +      +      +a     +      +      +      + 
    7.7625x   11.004  +      +      +      +      +a     +      +      +      + 
    7.9433x   11.003 -+------+------+------+------+a-----+------+------+------+-
    8.1283x   11.002  +      +      +      +      +a     +      +      +      + 
    8.3176x   11.001  +      +      +      +      +a     +      +      +      + 
    8.5114x   11.000  +      +      +      +      +a     +      +      +      + 
    8.7096x   10.999  +      +      +      +      +a     +      +      +      + 
    8.9125x   10.998  +      +      +      +      +a     +      +      +      + 
    9.1201x   10.997  +      +      +      +      +a     +      +      +      + 
    9.3325x   10.996  +      +      +      +      +a     +      +      +      + 
    9.5499x   10.995  +      +      +      +      +a     +      +      +      + 
    9.7724x   10.994  +      +      +      +      +a     +      +      +      + 
   10.0000x   10.992 -+------+------+------+------+a-----+------+------+------+-
   10.2329x   10.991  +      +      +      +      +a     +      +      +      + 
   10.4713x   10.989  +      +      +      +      +a     +      +      +      + 
   10.7152x   10.988  +      +      +      +      +a     +      +      +      + 
   10.9648x   10.986  +      +      +      +      +a     +      +      +      + 
   11.2202x   10.985  +      +      +      +      +a     +      +      +      + 
   11.4815x   10.983  +      +      +      +      +a     +      +      +      + 
   11.7490x   10.981  +      +      +      +      +a     +      +      +      + 
   12.0226x   10.979  +      +      +      +      +a     +      +      +      + 
   12.3027x   10.977  +      +      +      +      +a     +      +      +      + 
   12.5893x   10.975 -+------+------+------+------+a-----+------+------+------+-
   12.8825x   10.973  +      +      +      +      +a     +      +      +      + 
   13.1826x   10.971  +      +      +      +      +a     +      +      +      + 
   13.4896x   10.968  +      +      +      +      +a     +      +      +      + 
   13.8038x   10.966  +      +      +      +      +a     +      +      +      + 
   14.1254x   10.963  +      +      +      +      +a     +      +      +      + 
   14.4544x   10.960  +      +      +      +      +a     +      +      +      + 
   14.7911x   10.958  +      +      +      +      +a     +      +      +      + 
   15.1356x   10.955  +      +      +      +      +a     +      +      +      + 
   15.4882x   10.951  +      +      +      +      +a     +      +      +      + 
   15.8489x   10.948 -+------+------+------+------+a-----+------+------+------+-
   16.2181x   10.945  +      +      +      +      +a     +      +      +      + 
   16.5959x   10.941  +      +      +      +      +a     +      +      +      + 
   16.9824x   10.937  +      +      +      +      +a     +      +      +      + 
   17.3780x   10.933  +      +      +      +      +a     +      +      +      + 
   17.7828x   10.929  +      +      +      +      +a     +      +      +      + 
   18.1970x   10.925  +      +      +      +      +a     +      +      +      + 
   18.6209x   10.921  +      +      +      +      +a     +      +      +      + 
   19.0546x   10.916  +      +      +      +      +a     +      +      +      + 
   19.4984x   10.911  +      +      +      +      +a     +      +      +      + 
   19.9526x   10.906 -+------+------+------+------+a-----+------+------+------+-
   20.4174x   10.900  +      +      +      +      +a     +      +      +      + 
   20.8930x   10.895  +      +      +      +      +a     +      +      +      + 
   21.3796x   10.889  +      +      +      +      +a     +      +      +      + 
   21.8776x   10.883  +      +      +      +      +a     +      +      +      + 
   22.3872x   10.876  +      +      +      +      +a     +      +      +      + 
   22.9087x   10.869  +      +      +      +      +a     +      +      +      + 
   23.4423x   10.862  +      +      +      +      +a     +      +      +      + 
   23.9883x   10.855  +      +      +      +      +a     +      +      +      + 
   24.5471x   10.847  +      +      +      +      +a     +      +      +      + 
   25.1189x   10.839 -+------+------+------+------+a-----+------+------+------+-
   25.7040x   10.831  +      +      +      +      +a     +      +      +      + 
   26.3027x   10.822  +      +      +      +      +a     +      +      +      + 
   26.9153x   10.813  +      +      +      +      +a     +      +      +      + 
   27.5423x   10.803  +      +      +      +      +a     +      +      +      + 
   28.1838x   10.793  +      +      +      +      +a     +      +      +      + 
   28.8403x   10.783  +      +      +      +      +a     +      +      +      + 
   29.5121x   10.772  +      +      +      +      +a     +      +      +      + 
   30.1995x   10.760  +      +      +      +      +a     +      +      +      + 
   30.9030x   10.748  +      +      +      +      +a     +      +      +      + 
   31.6228x   10.736 -+------+------+------+------+a-----+------+------+------+-
   32.3594x   10.723  +      +      +      +      +a     +      +      +      + 
   33.1131x   10.709  +      +      +      +      +a     +      +      +      + 
   33.8844x   10.695  +      +      +      +      +a     +      +      +      + 
   34.6737x   10.680  +      +      +      +      +a     +      +      +      + 
   35.4813x   10.665  +      +      +      +      +a     +      +      +      + 
   36.3078x   10.649  +      +      +      +      +a     +      +      +      + 
   37.1535x   10.632  +      +      +      +      +a     +      +      +      + 
   38.0189x   10.614  +      +      +      +      +a     +      +      +      + 
   38.9045x   10.596  +      +      +      +      +a     +      +      +      + 
   39.8107x   10.577 -+------+------+------+------+a-----+------+------+------+-
   40.7380x   10.557  +      +      +      +      +a     +      +      +      + 
   41.6869x   10.536  +      +      +      +      +a     +      +      +      + 
   42.6580x   10.515  +      +      +      +      +a     +      +      +      + 
   43.6516x   10.492  +      +      +      +      +a     +      +      +      + 
   44.6684x   10.469  +      +      +      +      +a     +      +      +      + 
   45.7088x   10.444  +      +      +      +      +a     +      +      +      + 
   46.7735x   10.419  +      +      +      +      +a     +      +      +      + 
   47.8630x   10.392  +      +      +      +      +a     +      +      +      + 
   48.9779x   10.365  +      +      +      +      +a     +      +      +      + 
   50.1187x   10.336 -+------+------+------+------a------+------+------+------+-
   51.2861x   10.306  +      +      +      +      a      +      +      +      + 
   52.4807x   10.275  +      +      +      +      a      +      +      +      + 
   53.7032x   10.243  +      +      +      +      a      +      +      +      + 
   54.9541x   10.209  +      +      +      +      a      +      +      +      + 
   56.2341x   10.175  +      +      +      +      a      +      +      +      + 
   57.5440x   10.138  +      +      +      +      a      +      +      +      + 
   58.8844x   10.101  +      +      +      +      a      +      +      +      + 
   60.2560x   10.062  +      +      +      +      a      +      +      +      + 
   61.6595x   10.021  +      +      +      +      a      +      +      +      + 
   63.0957x    9.979 -+------+------+------+------a------+------+------+------+-
   64.5654x    9.936  +      +      +      +      a      +      +      +      + 
   66.0693x    9.891  +      +      +      +      a      +      +      +      + 
   67.6083x    9.844  +      +      +      +      a      +      +      +      + 
   69.1831x    9.795  +      +      +      +      a      +      +      +      + 
   70.7946x    9.745  +      +      +      +      a      +      +      +      + 
   72.4436x    9.693  +      +      +      +      a      +      +      +      + 
   74.1310x    9.639  +      +      +      +     a+      +      +      +      + 
   75.8578x    9.584  +      +      +      +     a+      +      +      +      + 
   77.6247x    9.526  +      +      +      +     a+      +      +      +      + 
   79.4328x    9.467 -+------+------+------+-----a+------+------+------+------+-
   81.2831x    9.405  +      +      +      +     a+      +      +      +      + 
   83.1764x    9.342  +      +      +      +     a+      +      +      +      + 
   85.1138x    9.277  +      +      +      +     a+      +      +      +      + 
   87.0964x    9.209  +      +      +      +     a+      +      +      +      + 
   89.1251x    9.140  +      +      +      +     a+      +      +      +      + 
   91.2011x    9.068  +      +      +      +     a+      +      +      +      + 
   93.3254x    8.994  +      +      +      +     a+      +      +      +      + 
   95.4993x    8.918  +      +      +      +    a +      +      +      +      + 
   97.7237x    8.840  +      +      +      +    a +      +      +      +      + 
  100.0000x    8.759 -+------+------+------+----a-+------+------+------+------+-
  102.3293x    8.676  +      +      +      +    a +      +      +      +      + 
  104.7129x    8.591  +      +      +      +    a +      +      +      +      + 
  107.1519x    8.504  +      +      +      +    a +      +      +      +      + 
  109.6478x    8.414  +      +      +      +    a +      +      +      +      + 
  112.2018x    8.322  +      +      +      +    a +      +      +      +      + 
  114.8154x    8.228  +      +      +      +    a +      +      +      +      + 
  117.4898x    8.131  +      +      +      +   a  +      +      +      +      + 
  120.2264x    8.032  +      +      +      +   a  +      +      +      +      + 
  123.0269x    7.930  +      +      +      +   a  +      +      +      +      + 
  125.8925x    7.826 -+------+------+------+---a--+------+------+------+------+-
  128.8250x    7.720  +      +      +      +   a  +      +      +      +      + 
  131.8257x    7.612  +      +      +      +   a  +      +      +      +      + 
  134.8963x    7.501  +      +      +      +   a  +      +      +      +      + 
  138.0384x    7.387  +      +      +      +  a   +      +      +      +      + 
  141.2538x    7.271  +      +      +      +  a   +      +      +      +      + 
  144.5440x    7.153  +      +      +      +  a   +      +      +      +      + 
  147.9108x    7.033  +      +      +      +  a   +      +      +      +      + 
  151.3561x    6.910  +      +      +      +  a   +      +      +      +      + 
  154.8817x    6.785  +      +      +      + a    +      +      +      +      + 
  158.4893x    6.658 -+------+------+------+-a----+------+------+------+------+-
  162.1810x    6.528  +      +      +      + a    +      +      +      +      + 
  165.9587x    6.396  +      +      +      + a    +      +      +      +      + 
  169.8244x    6.262  +      +      +      + a    +      +      +      +      + 
  173.7801x    6.126  +      +      +      + a    +      +      +      +      + 
  177.8279x    5.987  +      +      +      +a     +      +      +      +      + 
  181.9701x    5.847  +      +      +      +a     +      +      +      +      + 
  186.2087x    5.704  +      +      +      +a     +      +      +      +      + 
  190.5461x    5.559  +      +      +      +a     +      +      +      +      + 
  194.9845x    5.412  +      +      +      +a     +      +      +      +      + 
  199.5262x    5.263 -+------+------+------a------+------+------+------+------+-
  204.1738x    5.112  +      +      +      a      +      +      +      +      + 
  208.9296x    4.959  +      +      +      a      +      +      +      +      + 
  213.7962x    4.804  +      +      +      a      +      +      +      +      + 
  218.7762x    4.647  +      +      +      a      +      +      +      +      + 
  223.8721x    4.488  +      +      +     a+      +      +      +      +      + 
  229.0868x    4.327  +      +      +     a+      +      +      +      +      + 
  234.4229x    4.165  +      +      +     a+      +      +      +      +      + 
  239.8833x    4.001  +      +      +     a+      +      +      +      +      + 
  245.4709x    3.835  +      +      +    a +      +      +      +      +      + 
  251.1886x    3.667 -+------+------+----a-+------+------+------+------+------+-
  257.0396x    3.497  +      +      +    a +      +      +      +      +      + 
  263.0268x    3.326  +      +      +    a +      +      +      +      +      + 
  269.1535x    3.153  +      +      +   a  +      +      +      +      +      + 
  275.4229x    2.978  +      +      +   a  +      +      +      +      +      + 
  281.8383x    2.802  +      +      +   a  +      +      +      +      +      + 
  288.4032x    2.625  +      +      +   a  +      +      +      +      +      + 
  295.1209x    2.445  +      +      +  a   +      +      +      +      +      + 
  301.9952x    2.264  +      +      +  a   +      +      +      +      +      + 
  309.0295x    2.082  +      +      +  a   +      +      +      +      +      + 
  316.2278x    1.898 -+------+------+--a---+------+------+------+------+------+-
  323.5937x    1.713  +      +      + a    +      +      +      +      +      + 
  331.1311x    1.526  +      +      + a    +      +      +      +      +      + 
  338.8442x    1.337  +      +      + a    +      +      +      +      +      + 
  346.7369x    1.148  +      +      + a    +      +      +      +      +      + 
  354.8134x  956.399m +      +      +a     +      +      +      +      +      + 
  363.0781x  763.738m +      +      +a     +      +      +      +      +      + 
  371.5352x  569.657m +      +      +a     +      +      +      +      +      + 
  380.1894x  374.162m +      +      +a     +      +      +      +      +      + 
  389.0451x  177.260m +      +      a      +      +      +      +      +      + 
  398.1072x  -21.047m-+------+------a------+------+------+------+------+------+-
  407.3803x -220.757m +      +      a      +      +      +      +      +      + 
  416.8694x -421.868m +      +     a+      +      +      +      +      +      + 
  426.5795x -624.383m +      +     a+      +      +      +      +      +      + 
  436.5158x -828.303m +      +     a+      +      +      +      +      +      + 
  446.6836x   -1.034  +      +     a+      +      +      +      +      +      + 
  457.0882x   -1.240  +      +    a +      +      +      +      +      +      + 
  467.7351x   -1.449  +      +    a +      +      +      +      +      +      + 
  478.6301x   -1.658  +      +    a +      +      +      +      +      +      + 
  489.7788x   -1.869  +      +   a  +      +      +      +      +      +      + 
  501.1872x   -2.082 -+------+---a--+------+------+------+------+------+------+-
  512.8614x   -2.296  +      +   a  +      +      +      +      +      +      + 
  524.8075x   -2.511  +      +  a   +      +      +      +      +      +      + 
  537.0318x   -2.728  +      +  a   +      +      +      +      +      +      + 
  549.5409x   -2.947  +      +  a   +      +      +      +      +      +      + 
  562.3413x   -3.167  +      +  a   +      +      +      +      +      +      + 
  575.4399x   -3.388  +      + a    +      +      +      +      +      +      + 
  588.8437x   -3.611  +      + a    +      +      +      +      +      +      + 
  602.5596x   -3.836  +      + a    +      +      +      +      +      +      + 
  616.5950x   -4.062  +      +a     +      +      +      +      +      +      + 
  630.9573x   -4.290 -+------+a-----+------+------+------+------+------+------+-
  645.6542x   -4.520  +      +a     +      +      +      +      +      +      + 
  660.6934x   -4.752  +      a      +      +      +      +      +      +      + 
  676.0830x   -4.985  +      a      +      +      +      +      +      +      + 
  691.8310x   -5.220  +      a      +      +      +      +      +      +      + 
  707.9458x   -5.456  +     a+      +      +      +      +      +      +      + 
  724.4360x   -5.695  +     a+      +      +      +      +      +      +      + 
  741.3102x   -5.935  +     a+      +      +      +      +      +      +      + 
  758.5776x   -6.177  +    a +      +      +      +      +      +      +      + 
  776.2471x   -6.421  +    a +      +      +      +      +      +      +      + 
  794.3282x   -6.667 -+----a-+------+------+------+------+------+------+------+-
  812.8305x   -6.915  +   a  +      +      +      +      +      +      +      + 
  831.7638x   -7.165  +   a  +      +      +      +      +      +      +      + 
  851.1380x   -7.417  +   a  +      +      +      +      +      +      +      + 
  870.9636x   -7.671  +  a   +      +      +      +      +      +      +      + 
  891.2509x   -7.927  +  a   +      +      +      +      +      +      +      + 
  912.0108x   -8.186  +  a   +      +      +      +      +      +      +      + 
  933.2543x   -8.446  + a    +      +      +      +      +      +      +      + 
  954.9926x   -8.709  + a    +      +      +      +      +      +      +      + 
  977.2372x   -8.973  +a     +      +      +      +      +      +      +      + 
    1.0000g   -9.240 -+a-----+------+------+------+------+------+------+------+-
                      +             +             +             +             + 

b


          ***** job concluded
1****** HSPICE -- F-2011.09-SP2 32-BIT (Feb 27 2012) linux ******               
 ******  
 .title nmos

  ******  job statistics summary tnom=  25.000 temp=  25.000 *****
  
  
 ******  Machine Information  ******
 CPU:
 model name	: Intel(R) Xeon(R) CPU E3-1240 V2 @ 3.40GHz
 cpu MHz	: 1600.000
  
 OS:
 Linux version 2.6.32-358.23.2.el6.x86_64 (mockbuild@c6b9.bsys.dev.centos.org) (
 gcc version 4.4.7 20120313 (Red Hat 4.4.7-3) (GCC) ) #1 SMP Wed Oct 16 18:37:12
  UTC 2013


  ******  HSPICE Threads Information  ******

  Command Line Threads Count :     1
  Available CPU Count        :     8
  Actual Threads Count       :     1


  ******  Circuit Statistics  ******
  # nodes       =       6 # elements   =       7
  # resistors   =       2 # capacitors =       1 # inductors   =       0
  # mutual_inds =       0 # vccs       =       0 # vcvs        =       0
  # cccs        =       0 # ccvs       =       0 # volt_srcs   =       3
  # curr_srcs   =       0 # diodes     =       0 # bjts        =       0
  # jfets       =       0 # mosfets    =       1 # U elements  =       0
  # T elements  =       0 # W elements =       0 # B elements  =       0
  # S elements  =       0 # P elements =       0 # va device   =       0
  # vector_srcs =       0


  ******  Runtime Statistics (seconds)  ******

  analysis           time    # points   tot. iter  conv.iter
  op point           0.00           1           5
  ac analysis        0.00         601         601
  readin             0.01
  errchk             0.00
  setup              0.00
  output             0.00


           peak memory used         95.58 megabytes
           total cpu time            0.01 seconds
           total elapsed time        0.38 seconds
           job started at     19:25:40 12/01/2013
           job ended   at     19:25:41 12/01/2013


 lic: Release hspice token(s) 
